(PID.TID 0000.0001) 
(PID.TID 0000.0001) // ======================================================
(PID.TID 0000.0001) //                      MITgcm UV
(PID.TID 0000.0001) //                      =========
(PID.TID 0000.0001) // ======================================================
(PID.TID 0000.0001) // execution environment starting up...
(PID.TID 0000.0001) 
(PID.TID 0000.0001) // MITgcmUV version:  checkpoint66l
(PID.TID 0000.0001) // Build user:        carrolld
(PID.TID 0000.0001) // Build host:        LMC-066220
(PID.TID 0000.0001) // Build date:        Sat Jul 11 16:27:34 PDT 2020
(PID.TID 0000.0001) 
(PID.TID 0000.0001) // =======================================================
(PID.TID 0000.0001) // Execution Environment parameter file "eedata"
(PID.TID 0000.0001) // =======================================================
(PID.TID 0000.0001) ># Example "eedata" file
(PID.TID 0000.0001) ># Lines beginning "#" are comments
(PID.TID 0000.0001) ># nTx - No. threads per process in X
(PID.TID 0000.0001) ># nTy - No. threads per process in Y
(PID.TID 0000.0001) > &EEPARMS
(PID.TID 0000.0001) > nTx=1,
(PID.TID 0000.0001) > nTy=1,
(PID.TID 0000.0001) > /
(PID.TID 0000.0001) ># Note: Some systems use & as the
(PID.TID 0000.0001) ># namelist terminator. Other systems
(PID.TID 0000.0001) ># use a / character (as shown here).
(PID.TID 0000.0001) 
(PID.TID 0000.0001) // =======================================================
(PID.TID 0000.0001) // Computational Grid Specification ( see files "SIZE.h" )
(PID.TID 0000.0001) //                                  ( and "eedata"       )
(PID.TID 0000.0001) // =======================================================
(PID.TID 0000.0001)      nPx =    1 ; /* No. processes in X */
(PID.TID 0000.0001)      nPy =    1 ; /* No. processes in Y */
(PID.TID 0000.0001)      nSx =    1 ; /* No. tiles in X per process */
(PID.TID 0000.0001)      nSy =    1 ; /* No. tiles in Y per process */
(PID.TID 0000.0001)      sNx =  128 ; /* Tile size in X */
(PID.TID 0000.0001)      sNy =   64 ; /* Tile size in Y */
(PID.TID 0000.0001)      OLx =    4 ; /* Tile overlap distance in X */
(PID.TID 0000.0001)      OLy =    4 ; /* Tile overlap distance in Y */
(PID.TID 0000.0001)      nTx =    1 ; /* No. threads in X per process */
(PID.TID 0000.0001)      nTy =    1 ; /* No. threads in Y per process */
(PID.TID 0000.0001)       Nr =   15 ; /* No. levels in the vertical   */
(PID.TID 0000.0001)       Nx =  128 ; /* Total domain size in X ( = nPx*nSx*sNx ) */
(PID.TID 0000.0001)       Ny =   64 ; /* Total domain size in Y ( = nPy*nSy*sNy ) */
(PID.TID 0000.0001)   nTiles =    1 ; /* Total no. tiles per process ( = nSx*nSy ) */
(PID.TID 0000.0001)   nProcs =    1 ; /* Total no. processes ( = nPx*nPy ) */
(PID.TID 0000.0001) nThreads =    1 ; /* Total no. threads per process ( = nTx*nTy ) */
(PID.TID 0000.0001) usingMPI =    F ; /* Flag used to control whether MPI is in use */
(PID.TID 0000.0001)                   /*  note: To execute a program with MPI calls */
(PID.TID 0000.0001)                   /*  it must be launched appropriately e.g     */
(PID.TID 0000.0001)                   /*  "mpirun -np 64 ......"                    */
(PID.TID 0000.0001) useCoupler=    F ;/* Flag used to control communications with   */
(PID.TID 0000.0001)                   /*  other model components, through a coupler */
(PID.TID 0000.0001) debugMode =    F ; /* print debug msg. (sequence of S/R calls)  */
(PID.TID 0000.0001) printMapIncludesZeros=    F ; /* print zeros in Std.Output maps */
(PID.TID 0000.0001) maxLengthPrt1D=   65 /* maxLength of 1D array printed to StdOut */
(PID.TID 0000.0001) 
(PID.TID 0000.0001) // ======================================================
(PID.TID 0000.0001) // Mapping of tiles to threads
(PID.TID 0000.0001) // ======================================================
(PID.TID 0000.0001) // -o- Thread   1, tiles (   1:   1,   1:   1)
(PID.TID 0000.0001) 
(PID.TID 0000.0001) // ======================================================
(PID.TID 0000.0001) // Tile <-> Tile connectvity table
(PID.TID 0000.0001) // ======================================================
(PID.TID 0000.0001) // Tile number: 000001 (process no. = 000000)
(PID.TID 0000.0001) //        WEST: Tile = 000001, Process = 000000, Comm = put
(PID.TID 0000.0001) //                bi = 000001, bj = 000001
(PID.TID 0000.0001) //        EAST: Tile = 000001, Process = 000000, Comm = put
(PID.TID 0000.0001) //                bi = 000001, bj = 000001
(PID.TID 0000.0001) //       SOUTH: Tile = 000001, Process = 000000, Comm = put
(PID.TID 0000.0001) //                bi = 000001, bj = 000001
(PID.TID 0000.0001) //       NORTH: Tile = 000001, Process = 000000, Comm = put
(PID.TID 0000.0001) //                bi = 000001, bj = 000001
(PID.TID 0000.0001) 
(PID.TID 0000.0001)  INI_PARMS: opening model parameter file "data"
(PID.TID 0000.0001)  OPEN_COPY_DATA_FILE: opening file data
(PID.TID 0000.0001) // =======================================================
(PID.TID 0000.0001) // Parameter file "data"
(PID.TID 0000.0001) // =======================================================
(PID.TID 0000.0001) ># ====================
(PID.TID 0000.0001) ># | Model parameters |
(PID.TID 0000.0001) ># ====================
(PID.TID 0000.0001) >#
(PID.TID 0000.0001) ># Continuous equation parameters
(PID.TID 0000.0001) > &PARM01
(PID.TID 0000.0001) > tRef           = 15*20.,
(PID.TID 0000.0001) > sRef           = 15*35.,
(PID.TID 0000.0001) > no_slip_sides  = .TRUE.,
(PID.TID 0000.0001) > no_slip_bottom = .TRUE.,
(PID.TID 0000.0001) >#
(PID.TID 0000.0001) > viscAr=1.E-3,
(PID.TID 0000.0001) >#
(PID.TID 0000.0001) > viscAh=2.E5,
(PID.TID 0000.0001) > viscAhGrid=1.E-2,
(PID.TID 0000.0001) >#
(PID.TID 0000.0001) > diffKhT=0.E3,
(PID.TID 0000.0001) > diffKhS=0.E3,
(PID.TID 0000.0001) > diffKrBL79surf= 3.E-5,
(PID.TID 0000.0001) > diffKrBL79deep= 13.E-5,
(PID.TID 0000.0001) > diffKrBL79Ho  = -2000.,
(PID.TID 0000.0001) > diffKrBL79scl = 150.,
(PID.TID 0000.0001) >#
(PID.TID 0000.0001) > bottomDragQuadratic = 0.001,
(PID.TID 0000.0001) >#when using ggl90
(PID.TID 0000.0001) > ivdc_kappa=10.,
(PID.TID 0000.0001) > implicitDiffusion=.TRUE.,
(PID.TID 0000.0001) > implicitViscosity=.TRUE.,
(PID.TID 0000.0001) > viscC4Leith=1.5,
(PID.TID 0000.0001) > viscC4Leithd=1.5,
(PID.TID 0000.0001) > viscA4GridMax=0.5,
(PID.TID 0000.0001) > useAreaViscLength=.TRUE.,
(PID.TID 0000.0001) > useRealFreshWaterFlux=.TRUE.,
(PID.TID 0000.0001) > balanceSaltClimRelax=.TRUE.,
(PID.TID 0000.0001) > allowFreezing=.FALSE.,
(PID.TID 0000.0001) > hFacMinDr=50.,
(PID.TID 0000.0001) > hFacMin=0.1,
(PID.TID 0000.0001) > hFacInf=0.1,
(PID.TID 0000.0001) > hFacSup=5.,
(PID.TID 0000.0001) > select_rStar=2,
(PID.TID 0000.0001) > nonlinFreeSurf=4,
(PID.TID 0000.0001) > gravity=9.81,
(PID.TID 0000.0001) > rhonil=1029.,
(PID.TID 0000.0001) > rhoConst=1029.,
(PID.TID 0000.0001) > rhoConstFresh=1000.,
(PID.TID 0000.0001) > convertFW2Salt=-1.,
(PID.TID 0000.0001) > eosType='JMD95Z',
(PID.TID 0000.0001) > implicitFreeSurface=.TRUE.,
(PID.TID 0000.0001) > exactConserv=.TRUE.,
(PID.TID 0000.0001) > useSingleCpuIO=.TRUE.,
(PID.TID 0000.0001) > tempAdvScheme=30,
(PID.TID 0000.0001) > saltAdvScheme=30,
(PID.TID 0000.0001) > tempVertAdvScheme=3,
(PID.TID 0000.0001) > saltVertAdvScheme=3,
(PID.TID 0000.0001) > tempImplVertAdv=.TRUE.,
(PID.TID 0000.0001) > saltImplVertAdv=.TRUE.,
(PID.TID 0000.0001) > staggerTimeStep=.TRUE.,
(PID.TID 0000.0001) > vectorInvariantMomentum=.TRUE.,
(PID.TID 0000.0001) >#when using the cd scheme:
(PID.TID 0000.0001) > useCDscheme=.TRUE.,
(PID.TID 0000.0001) > useJamartWetPoints=.TRUE.,
(PID.TID 0000.0001) > readBinaryPrec=32,
(PID.TID 0000.0001) > writeBinaryPrec=32,
(PID.TID 0000.0001) > debugLevel=1,
(PID.TID 0000.0001) > /
(PID.TID 0000.0001) >
(PID.TID 0000.0001) ># Elliptic solver parameters
(PID.TID 0000.0001) > &PARM02
(PID.TID 0000.0001) > cg2dMaxIters=300,
(PID.TID 0000.0001) > cg2dTargetResWunit=1.E-12,
(PID.TID 0000.0001) > /
(PID.TID 0000.0001) >
(PID.TID 0000.0001) ># Time stepping parameters
(PID.TID 0000.0001) > &PARM03
(PID.TID 0000.0001) > nIter0=0,
(PID.TID 0000.0001) > nTimeSteps=4,
(PID.TID 0000.0001) > forcing_In_AB=.FALSE.,
(PID.TID 0000.0001) > momDissip_In_AB=.FALSE.,
(PID.TID 0000.0001) >#when using the cd scheme:
(PID.TID 0000.0001) ># epsAB_CD = 0.25,
(PID.TID 0000.0001) > tauCD=321428.,
(PID.TID 0000.0001) > deltaTmom   =1200.,
(PID.TID 0000.0001) > deltaTtracer=1200.,
(PID.TID 0000.0001) > deltaTfreesurf=1200.,
(PID.TID 0000.0001) > deltaTClock =1200.,
(PID.TID 0000.0001) >#when using ab2:
(PID.TID 0000.0001) ># abEps = 0.1,
(PID.TID 0000.0001) >#when using ab3:
(PID.TID 0000.0001) > doAB_onGtGs=.FALSE.,
(PID.TID 0000.0001) > alph_AB=0.5,
(PID.TID 0000.0001) > beta_AB=0.281105,
(PID.TID 0000.0001) >#
(PID.TID 0000.0001) > pChkptFreq  =31536000.0,
(PID.TID 0000.0001) > chkptFreq   =31536000.0,
(PID.TID 0000.0001) > monitorFreq = 1.0,
(PID.TID 0000.0001) > dumpInitAndLast = .FALSE.,
(PID.TID 0000.0001) > adjDumpFreq = 31536000.0,
(PID.TID 0000.0001) > adjMonitorFreq = 43200.0,
(PID.TID 0000.0001) > pickupStrictlyMatch=.FALSE.,
(PID.TID 0000.0001) > periodicExternalForcing=.TRUE.,
(PID.TID 0000.0001) > externForcingPeriod=2592000.,
(PID.TID 0000.0001) > externForcingCycle=31104000.,
(PID.TID 0000.0001) > /
(PID.TID 0000.0001) >
(PID.TID 0000.0001) ># Gridding parameters
(PID.TID 0000.0001) > &PARM04
(PID.TID 0000.0001) > usingSphericalPolarGrid=.TRUE.,
(PID.TID 0000.0001) > delR=  50., 70.,  100., 140., 190.,
(PID.TID 0000.0001) >       240., 290., 340., 390., 440.,
(PID.TID 0000.0001) >       490., 540., 590., 640., 690.,
(PID.TID 0000.0001) > ygOrigin=-90.,
(PID.TID 0000.0001) > delX=128*2.8125,
(PID.TID 0000.0001) > delY=64*2.8125,
(PID.TID 0000.0001) > /
(PID.TID 0000.0001) >
(PID.TID 0000.0001) ># Input datasets
(PID.TID 0000.0001) > &PARM05
(PID.TID 0000.0001) > bathyFile       = 'bathy.bin',
(PID.TID 0000.0001) > hydrogThetaFile = 'Theta.0005184000',
(PID.TID 0000.0001) > hydrogSaltFile  = 'Salt.0005184000',
(PID.TID 0000.0001) > uVelInitFile    = 'Uvel.0005184000',
(PID.TID 0000.0001) > vVelInitFile    = 'Vvel.0005184000',
(PID.TID 0000.0001) > pSurfInitFile   = 'Eta.0005184000',
(PID.TID 0000.0001) > /
(PID.TID 0000.0001) 
(PID.TID 0000.0001)  INI_PARMS ; starts to read PARM01
(PID.TID 0000.0001)  INI_PARMS ; read PARM01 : OK
(PID.TID 0000.0001)  INI_PARMS ; starts to read PARM02
(PID.TID 0000.0001)  INI_PARMS ; read PARM02 : OK
(PID.TID 0000.0001)  INI_PARMS ; starts to read PARM03
(PID.TID 0000.0001)  INI_PARMS ; read PARM03 : OK
(PID.TID 0000.0001)  INI_PARMS ; starts to read PARM04
(PID.TID 0000.0001)  INI_PARMS ; read PARM04 : OK
(PID.TID 0000.0001)  INI_PARMS ; starts to read PARM05
(PID.TID 0000.0001)  INI_PARMS ; read PARM05 : OK
(PID.TID 0000.0001)  INI_PARMS: finished reading file "data"
(PID.TID 0000.0001)  PACKAGES_BOOT: opening data.pkg
(PID.TID 0000.0001)  OPEN_COPY_DATA_FILE: opening file data.pkg
(PID.TID 0000.0001) // =======================================================
(PID.TID 0000.0001) // Parameter file "data.pkg"
(PID.TID 0000.0001) // =======================================================
(PID.TID 0000.0001) ># Packages
(PID.TID 0000.0001) > &PACKAGES
(PID.TID 0000.0001) > useEXF        = .TRUE.,
(PID.TID 0000.0001) > useCAL        = .TRUE.,
(PID.TID 0000.0001) > useGMRedi     = .TRUE.,
(PID.TID 0000.0001) > useSeaice     = .TRUE.,
(PID.TID 0000.0001) > useGGL90      = .TRUE.,
(PID.TID 0000.0001) > useSALT_PlUME =.TRUE.,
(PID.TID 0000.0001) > useDiagnostics=.TRUE.,
(PID.TID 0000.0001) > usePTRACERS   = .TRUE.,
(PID.TID 0000.0001) > useGCHEM      = .TRUE.,
(PID.TID 0000.0001) > /
(PID.TID 0000.0001) 
(PID.TID 0000.0001)  PACKAGES_BOOT: finished reading data.pkg
(PID.TID 0000.0001)  PACKAGES_BOOT: On/Off package Summary
 --------  pkgs with a standard "usePKG" On/Off switch in "data.pkg":  --------
 pkg/ggl90                compiled   and   used ( useGGL90                 = T )
 pkg/gmredi               compiled   and   used ( useGMRedi                = T )
 pkg/cal                  compiled   and   used ( useCAL                   = T )
 pkg/exf                  compiled   and   used ( useEXF                   = T )
 pkg/ptracers             compiled   and   used ( usePTRACERS              = T )
 pkg/gchem                compiled   and   used ( useGCHEM                 = T )
 pkg/seaice               compiled   and   used ( useSEAICE                = T )
 pkg/salt_plume           compiled   and   used ( useSALT_PLUME            = T )
 pkg/diagnostics          compiled   and   used ( useDiagnostics           = T )
 -------- pkgs without standard "usePKG" On/Off switch in "data.pkg":  --------
 pkg/generic_advdiff      compiled   and   used ( useGAD                   = T )
 pkg/mom_common           compiled   and   used ( momStepping              = T )
 pkg/mom_vecinv           compiled   and   used ( +vectorInvariantMomentum = T )
 pkg/cd_code              compiled   and   used ( useCDscheme              = T )
 pkg/monitor              compiled   and   used ( monitorFreq > 0.         = T )
 pkg/debug                compiled but not used ( debugMode                = F )
 pkg/rw                   compiled   and   used
 pkg/mdsio                compiled   and   used
(PID.TID 0000.0001)  PACKAGES_BOOT: End of package Summary
(PID.TID 0000.0001) 
(PID.TID 0000.0001) CAL_READPARMS: opening data.cal
(PID.TID 0000.0001)  OPEN_COPY_DATA_FILE: opening file data.cal
(PID.TID 0000.0001) // =======================================================
(PID.TID 0000.0001) // Parameter file "data.cal"
(PID.TID 0000.0001) // =======================================================
(PID.TID 0000.0001) >#
(PID.TID 0000.0001) ># *******************
(PID.TID 0000.0001) ># Calendar Parameters
(PID.TID 0000.0001) ># *******************
(PID.TID 0000.0001) > &CAL_NML
(PID.TID 0000.0001) > TheCalendar='gregorian',
(PID.TID 0000.0001) > startDate_1=19920101,
(PID.TID 0000.0001) ># startDate_2=120000,
(PID.TID 0000.0001) > startDate_2=000000,
(PID.TID 0000.0001) > calendarDumps = .TRUE.,
(PID.TID 0000.0001) > /
(PID.TID 0000.0001) 
(PID.TID 0000.0001) CAL_READPARMS: finished reading data.cal
(PID.TID 0000.0001) EXF_READPARMS: opening data.exf
(PID.TID 0000.0001)  OPEN_COPY_DATA_FILE: opening file data.exf
(PID.TID 0000.0001) // =======================================================
(PID.TID 0000.0001) // Parameter file "data.exf"
(PID.TID 0000.0001) // =======================================================
(PID.TID 0000.0001) ># *********************
(PID.TID 0000.0001) ># External Forcing Data
(PID.TID 0000.0001) ># *********************
(PID.TID 0000.0001) >#
(PID.TID 0000.0001) > &EXF_NML_01
(PID.TID 0000.0001) >#
(PID.TID 0000.0001) > useAtmWind        = .TRUE.,
(PID.TID 0000.0001) >#NCEP VALUES:
(PID.TID 0000.0001) ># exf_albedo        = 0.15,
(PID.TID 0000.0001) ># exf_scal_BulkCdn  = 1.015,
(PID.TID 0000.0001) >#
(PID.TID 0000.0001) >#TO COMBINE WITH ALLOW_ZENITH_ANGLE:
(PID.TID 0000.0001) > exf_albedo        = 0.1,
(PID.TID 0000.0001) > useExfZenIncoming = .TRUE.,
(PID.TID 0000.0001) > select_ZenAlbedo  = 1,
(PID.TID 0000.0001) >#
(PID.TID 0000.0001) > ocean_emissivity = 0.97,
(PID.TID 0000.0001) > ice_emissivity = 0.95,
(PID.TID 0000.0001) > snow_emissivity = 0.95,
(PID.TID 0000.0001) >#
(PID.TID 0000.0001) > exf_iprec         = 32,
(PID.TID 0000.0001) > exf_yftype        = 'RL',
(PID.TID 0000.0001) > useExfYearlyFields= .FALSE.,
(PID.TID 0000.0001) > useExfCheckRange  = .FALSE.,
(PID.TID 0000.0001) > /
(PID.TID 0000.0001) >#
(PID.TID 0000.0001) > &EXF_NML_02
(PID.TID 0000.0001) > atempfile         = 'EIG_tmp2m_degC_plus_ECCO_v4r1_ctrl_2000',
(PID.TID 0000.0001) > aqhfile           = 'EIG_spfh2m_plus_ECCO_v4r1_ctrl_2000',
(PID.TID 0000.0001) > precipfile        = 'EIG_rain_plus_ECCO_v4r1_ctrl_2000',
(PID.TID 0000.0001) > uwindfile         = 'EIG_u10m_2000',
(PID.TID 0000.0001) > vwindfile         = 'EIG_v10m_2000',
(PID.TID 0000.0001) > swdownfile        = 'EIG_dsw_plus_ECCO_v4r1_ctrl_2000',
(PID.TID 0000.0001) > lwdownfile        = 'EIG_dlw_plus_ECCO_v4r1_ctrl_2000',
(PID.TID 0000.0001) > runofffile        = 'runoff-2d-Fekete-1deg-mon-V4-SMOOTH.bin',
(PID.TID 0000.0001) > apco2file         = 'apCO2_2000',
(PID.TID 0000.0001) >#
(PID.TID 0000.0001) > atempperiod       = -12.,
(PID.TID 0000.0001) > aqhperiod         = -12.,
(PID.TID 0000.0001) > precipperiod      = -12.,
(PID.TID 0000.0001) > uwindperiod       = -12.,
(PID.TID 0000.0001) > vwindperiod       = -12.,
(PID.TID 0000.0001) > swdownperiod      = -12.,
(PID.TID 0000.0001) > lwdownperiod      = -12.,
(PID.TID 0000.0001) > runoffperiod      = -12,
(PID.TID 0000.0001) > apco2period       = -12.,
(PID.TID 0000.0001) > /
(PID.TID 0000.0001) >#
(PID.TID 0000.0001) > &EXF_NML_03
(PID.TID 0000.0001) >#NOT FOR EIG exf_offset_atemp  = 273.3971,
(PID.TID 0000.0001) > exf_offset_atemp  = 273.15,
(PID.TID 0000.0001) >#NOT FOR NEW RUNOFF FIELD exf_inscal_runoff = 3.1710e-08,
(PID.TID 0000.0001) > exf_inscal_swdown = -1.0,
(PID.TID 0000.0001) > exf_inscal_lwdown = -1.0,
(PID.TID 0000.0001) ># to compensate for sea level rise for nlfs/realFWF
(PID.TID 0000.0001) >#precip_exfremo_intercept = 1.073E-9,
(PID.TID 0000.0001) >#precip_exfremo_slope = -3.340E-18,
(PID.TID 0000.0001) > /
(PID.TID 0000.0001) >#
(PID.TID 0000.0001) > &EXF_NML_04
(PID.TID 0000.0001) >#
(PID.TID 0000.0001) > atemp_lon0      = -178.5,
(PID.TID 0000.0001) > atemp_lon_inc   = 3.0,
(PID.TID 0000.0001) > atemp_lat0      = -88.5,
(PID.TID 0000.0001) > atemp_lat_inc   = 59*3.0,
(PID.TID 0000.0001) > atemp_nlon      = 120,
(PID.TID 0000.0001) > atemp_nlat      = 60,
(PID.TID 0000.0001) >#
(PID.TID 0000.0001) > aqh_lon0        = -178.5,
(PID.TID 0000.0001) > aqh_lon_inc     = 3.0,
(PID.TID 0000.0001) > aqh_lat0        = -88.5,
(PID.TID 0000.0001) > aqh_lat_inc     = 59*3.0,
(PID.TID 0000.0001) > aqh_nlon        = 120,
(PID.TID 0000.0001) > aqh_nlat        = 60,
(PID.TID 0000.0001) >#
(PID.TID 0000.0001) > precip_lon0     = -178.5,
(PID.TID 0000.0001) > precip_lon_inc  = 3.0,
(PID.TID 0000.0001) > precip_lat0     = -88.5,
(PID.TID 0000.0001) > precip_lat_inc  = 59*3.0,
(PID.TID 0000.0001) > precip_nlon     = 120,
(PID.TID 0000.0001) > precip_nlat     = 60,
(PID.TID 0000.0001) >#
(PID.TID 0000.0001) > uwind_lon0      = -178.5,
(PID.TID 0000.0001) > uwind_lon_inc   = 3.0,
(PID.TID 0000.0001) > uwind_lat0      = -88.5,
(PID.TID 0000.0001) > uwind_lat_inc   = 59*3.0,
(PID.TID 0000.0001) > uwind_nlon      = 120,
(PID.TID 0000.0001) > uwind_nlat      = 60,
(PID.TID 0000.0001) >#
(PID.TID 0000.0001) > vwind_lon0      = -178.5,
(PID.TID 0000.0001) > vwind_lon_inc   = 3.0,
(PID.TID 0000.0001) > vwind_lat0      = -88.5,
(PID.TID 0000.0001) > vwind_lat_inc   = 59*3.0,
(PID.TID 0000.0001) > vwind_nlon      = 120,
(PID.TID 0000.0001) > vwind_nlat      = 60,
(PID.TID 0000.0001) >#
(PID.TID 0000.0001) > swdown_lon0     = -178.5,
(PID.TID 0000.0001) > swdown_lon_inc  = 3.0,
(PID.TID 0000.0001) > swdown_lat0     = -88.5,
(PID.TID 0000.0001) > swdown_lat_inc  = 59*3.0,
(PID.TID 0000.0001) > swdown_nlon     = 120,
(PID.TID 0000.0001) > swdown_nlat     = 60,
(PID.TID 0000.0001) >#
(PID.TID 0000.0001) > lwdown_lon0     = -178.5,
(PID.TID 0000.0001) > lwdown_lon_inc  = 3.0,
(PID.TID 0000.0001) > lwdown_lat0     = -88.5,
(PID.TID 0000.0001) > lwdown_lat_inc  = 59*3.0,
(PID.TID 0000.0001) > lwdown_nlon     = 120,
(PID.TID 0000.0001) > lwdown_nlat     = 60,
(PID.TID 0000.0001) >#
(PID.TID 0000.0001) > runoff_lon0     = -178.5,
(PID.TID 0000.0001) > runoff_lon_inc  = 3.0,
(PID.TID 0000.0001) > runoff_lat0     = -88.5,
(PID.TID 0000.0001) > runoff_lat_inc  = 59*3.0,
(PID.TID 0000.0001) > runoff_nlon     = 120,
(PID.TID 0000.0001) > runoff_nlat     = 60,
(PID.TID 0000.0001) >#
(PID.TID 0000.0001) > apco2_lon0      = -178.5,
(PID.TID 0000.0001) > apco2_lon_inc   = 3.0,
(PID.TID 0000.0001) > apco2_lat0      = -88.5,
(PID.TID 0000.0001) > apco2_lat_inc   = 59*3.0,
(PID.TID 0000.0001) > apco2_nlon      = 120,
(PID.TID 0000.0001) > apco2_nlat      = 60,
(PID.TID 0000.0001) > /
(PID.TID 0000.0001) 
(PID.TID 0000.0001) EXF_READPARMS: reading EXF_NML_01
(PID.TID 0000.0001) EXF_READPARMS: reading EXF_NML_02
(PID.TID 0000.0001) EXF_READPARMS: reading EXF_NML_03
(PID.TID 0000.0001) EXF_READPARMS: reading EXF_NML_04
(PID.TID 0000.0001) EXF_READPARMS: finished reading data.exf
(PID.TID 0000.0001)  GGL90_READPARMS: opening data.ggl90
(PID.TID 0000.0001)  OPEN_COPY_DATA_FILE: opening file data.ggl90
(PID.TID 0000.0001) // =======================================================
(PID.TID 0000.0001) // Parameter file "data.ggl90"
(PID.TID 0000.0001) // =======================================================
(PID.TID 0000.0001) ># =====================================================================
(PID.TID 0000.0001) ># | Parameters for Gaspar et al. (1990)'s TKE vertical mixing scheme  |
(PID.TID 0000.0001) ># =====================================================================
(PID.TID 0000.0001) > &GGL90_PARM01
(PID.TID 0000.0001) > GGL90alpha=30.,
(PID.TID 0000.0001) > GGL90TKEmin  = 1.e-7,
(PID.TID 0000.0001) > GGL90TKEbottom = 1.e-6,
(PID.TID 0000.0001) > mxlMaxFlag =2,
(PID.TID 0000.0001) > mxlSurfFlag=.TRUE.,
(PID.TID 0000.0001) > /
(PID.TID 0000.0001) 
(PID.TID 0000.0001)  GGL90_READPARMS ; starts to read GGL90_PARM01
(PID.TID 0000.0001)  GGL90_READPARMS: read GGL90_PARM01 : OK
(PID.TID 0000.0001)  GGL90_READPARMS: finished reading data.ggl90
(PID.TID 0000.0001) // =======================================================
(PID.TID 0000.0001) // GGL90 configuration
(PID.TID 0000.0001) // =======================================================
(PID.TID 0000.0001) GGL90dumpFreq =   /* GGL90 state write out interval ( s ). */
(PID.TID 0000.0001)                 0.000000000000000E+00
(PID.TID 0000.0001)     ;
(PID.TID 0000.0001) GGL90taveFreq =   /* GGL90 averaging interval ( s ). */
(PID.TID 0000.0001)                 0.000000000000000E+00
(PID.TID 0000.0001)     ;
(PID.TID 0000.0001) GGL90mixingMAPS =   /* GGL90 IO flag. */
(PID.TID 0000.0001)                   F
(PID.TID 0000.0001)     ;
(PID.TID 0000.0001) GGL90writeState =   /* GGL90 IO flag. */
(PID.TID 0000.0001)                   F
(PID.TID 0000.0001)     ;
(PID.TID 0000.0001) GGL90ck =   /* GGL90 viscosity parameter. */
(PID.TID 0000.0001)                 1.000000000000000E-01
(PID.TID 0000.0001)     ;
(PID.TID 0000.0001) GGL90ceps =   /* GGL90 dissipation parameter. */
(PID.TID 0000.0001)                 7.000000000000000E-01
(PID.TID 0000.0001)     ;
(PID.TID 0000.0001) GGL90alpha =   /* GGL90 TKE diffusivity parameter. */
(PID.TID 0000.0001)                 3.000000000000000E+01
(PID.TID 0000.0001)     ;
(PID.TID 0000.0001) GGL90m2 =   /* GGL90 wind stress to vertical stress ratio. */
(PID.TID 0000.0001)                 3.750000000000000E+00
(PID.TID 0000.0001)     ;
(PID.TID 0000.0001) GGL90TKEmin =   /* GGL90 minimum kinetic energy ( m^2/s^2 ). */
(PID.TID 0000.0001)                 1.000000000000000E-07
(PID.TID 0000.0001)     ;
(PID.TID 0000.0001) GGL90TKEsurfMin =   /* GGL90 minimum surface kinetic energy ( m^2/s^2 ). */
(PID.TID 0000.0001)                 1.000000000000000E-04
(PID.TID 0000.0001)     ;
(PID.TID 0000.0001) GGL90TKEbottom =   /* GGL90 bottom kinetic energy ( m^2/s^2 ). */
(PID.TID 0000.0001)                 1.000000000000000E-06
(PID.TID 0000.0001)     ;
(PID.TID 0000.0001) GGL90viscMax =   /* GGL90 upper limit for viscosity ( m^2/s ). */
(PID.TID 0000.0001)                 1.000000000000000E+02
(PID.TID 0000.0001)     ;
(PID.TID 0000.0001) GGL90diffMax =   /* GGL90 upper limit for diffusivity ( m^2/s ). */
(PID.TID 0000.0001)                 1.000000000000000E+02
(PID.TID 0000.0001)     ;
(PID.TID 0000.0001) GGL90diffTKEh =   /* GGL90 horizontal diffusivity for TKE ( m^2/s ). */
(PID.TID 0000.0001)                 0.000000000000000E+00
(PID.TID 0000.0001)     ;
(PID.TID 0000.0001) GGL90mixingLengthMin =   /* GGL90 minimum mixing length ( m ). */
(PID.TID 0000.0001)                 1.000000000000000E-08
(PID.TID 0000.0001)     ;
(PID.TID 0000.0001) mxlMaxFlag =   /* Flag for limiting mixing-length method */
(PID.TID 0000.0001)                       2
(PID.TID 0000.0001)     ;
(PID.TID 0000.0001) mxlSurfFlag =   /* GGL90 flag for near surface mixing. */
(PID.TID 0000.0001)                   T
(PID.TID 0000.0001)     ;
(PID.TID 0000.0001) calcMeanVertShear = /* calc Mean of Vert.Shear (vs shear of Mean flow) */
(PID.TID 0000.0001)                   F
(PID.TID 0000.0001)     ;
(PID.TID 0000.0001) GGL90: GGL90TKEFile =
(PID.TID 0000.0001) GGL90writeState =   /* GGL90 Boundary condition flag. */
(PID.TID 0000.0001)                   T
(PID.TID 0000.0001)     ;
(PID.TID 0000.0001) // =======================================================
(PID.TID 0000.0001) // End of GGL90 config. summary
(PID.TID 0000.0001) // =======================================================
(PID.TID 0000.0001) 
(PID.TID 0000.0001)  GM_READPARMS: opening data.gmredi
(PID.TID 0000.0001)  OPEN_COPY_DATA_FILE: opening file data.gmredi
(PID.TID 0000.0001) // =======================================================
(PID.TID 0000.0001) // Parameter file "data.gmredi"
(PID.TID 0000.0001) // =======================================================
(PID.TID 0000.0001) ># from MOM
(PID.TID 0000.0001) ># GM_background_K: 	isopycnal diffusion coefficien
(PID.TID 0000.0001) ># GM_maxSlope:		max slope of isopycnals
(PID.TID 0000.0001) ># GM_Scrit:		transition for scaling diffusion coefficient
(PID.TID 0000.0001) ># GM_Sd:		half width scaling for diffusion coefficient
(PID.TID 0000.0001) ># real background diff:	horizontal diffusion
(PID.TID 0000.0001) >
(PID.TID 0000.0001) ># ifdef GM_VISBECK_VARIABLE_K, include following in GM_PARM01
(PID.TID 0000.0001) ># GM_Visbeck_alpha   = 0.,
(PID.TID 0000.0001) ># GM_Visbeck_length  = 2.e+5,
(PID.TID 0000.0001) ># GM_Visbeck_depth   = 1.e+3,
(PID.TID 0000.0001) ># GM_Visbeck_maxval_K= 2.5e+3,
(PID.TID 0000.0001) >
(PID.TID 0000.0001) > &GM_PARM01
(PID.TID 0000.0001) >  GM_background_K    = 1.e+3,
(PID.TID 0000.0001) >  GM_taper_scheme    = 'gkw91',
(PID.TID 0000.0001) >  GM_maxSlope        = 1.e-2,
(PID.TID 0000.0001) >  GM_Kmin_horiz      = 100.,
(PID.TID 0000.0001) >  GM_Scrit           = 4.e-3,
(PID.TID 0000.0001) >  GM_Sd              = 1.e-3,
(PID.TID 0000.0001) > /
(PID.TID 0000.0001) >
(PID.TID 0000.0001) >
(PID.TID 0000.0001) 
(PID.TID 0000.0001)  GM_READPARMS: finished reading data.gmredi
(PID.TID 0000.0001)  PTRACERS_READPARMS: opening data.ptracers
(PID.TID 0000.0001)  OPEN_COPY_DATA_FILE: opening file data.ptracers
(PID.TID 0000.0001) // =======================================================
(PID.TID 0000.0001) // Parameter file "data.ptracers"
(PID.TID 0000.0001) // =======================================================
(PID.TID 0000.0001) > &PTRACERS_PARM01
(PID.TID 0000.0001) > PTRACERS_numInUse=39,
(PID.TID 0000.0001) > PTRACERS_advScheme(1)=39*33,
(PID.TID 0000.0001) > PTRACERS_diffKh(1)=39*0.E3,
(PID.TID 0000.0001) > PTRACERS_diffKr(1)=39*1.E-5,
(PID.TID 0000.0001) > PTRACERS_useGMRedi(1)=39*.TRUE. ,
(PID.TID 0000.0001) ># tracer 1 - phosphate
(PID.TID 0000.0001) > PTRACERS_names(1)='PO4',
(PID.TID 0000.0001) > PTRACERS_units(1)='mmol P/m^3',
(PID.TID 0000.0001) > PTRACERS_initialFile(1)='ptracers_optimized_01.0000000001',
(PID.TID 0000.0001) ># tracer 2 - nitrate
(PID.TID 0000.0001) > PTRACERS_names(2)='NO3',
(PID.TID 0000.0001) > PTRACERS_units(2)='mmol N/m^3',
(PID.TID 0000.0001) > PTRACERS_initialFile(2)='ptracers_optimized_02.0000000001',
(PID.TID 0000.0001) ># tracer 3 - dissolved iron
(PID.TID 0000.0001) > PTRACERS_names(3)='FeT',
(PID.TID 0000.0001) > PTRACERS_units(3)='mmol Fe/m^3',
(PID.TID 0000.0001) > PTRACERS_initialFile(3)='ptracers_optimized_03.0000000001',
(PID.TID 0000.0001) ># tracer 4 - silicic acid
(PID.TID 0000.0001) > PTRACERS_names(4)='SiO2',
(PID.TID 0000.0001) > PTRACERS_units(4)='mmol Si/m^3',
(PID.TID 0000.0001) > PTRACERS_initialFile(4)='ptracers_optimized_04.0000000001',
(PID.TID 0000.0001) ># tracer 5 - DOP
(PID.TID 0000.0001) > PTRACERS_names(5)='DOP',
(PID.TID 0000.0001) > PTRACERS_units(5)='mmol P/m^3',
(PID.TID 0000.0001) > PTRACERS_initialFile(5)='ptracers_optimized_05.0000000001',
(PID.TID 0000.0001) ># tracer 6 - DON
(PID.TID 0000.0001) > PTRACERS_names(6)='DON',
(PID.TID 0000.0001) > PTRACERS_units(6)='mmol N/m^3',
(PID.TID 0000.0001) > PTRACERS_initialFile(6)='ptracers_optimized_06.0000000001',
(PID.TID 0000.0001) ># tracer 7 - DOFe
(PID.TID 0000.0001) > PTRACERS_names(7)='DOFe',
(PID.TID 0000.0001) > PTRACERS_units(7)='mmol Fe/m^3',
(PID.TID 0000.0001) > PTRACERS_initialFile(7)='ptracers_optimized_07.0000000001',
(PID.TID 0000.0001) ># tracer 8 - ZOO1P
(PID.TID 0000.0001) > PTRACERS_names(8)='ZOO1P',
(PID.TID 0000.0001) > PTRACERS_units(8)='mmol P/m^3',
(PID.TID 0000.0001) > PTRACERS_initialFile(8)='ptracers_optimized_08.0000000001',
(PID.TID 0000.0001) ># tracer 9 - ZOO1N
(PID.TID 0000.0001) > PTRACERS_names(9)='ZOO1N',
(PID.TID 0000.0001) > PTRACERS_units(9)='mmol N/m^3'
(PID.TID 0000.0001) > PTRACERS_initialFile(9)='ptracers_optimized_09.0000000001',
(PID.TID 0000.0001) ># tracer 10 - ZOO1Fe
(PID.TID 0000.0001) > PTRACERS_names(10)='ZOO1Fe',
(PID.TID 0000.0001) > PTRACERS_units(10)='mmol Fe/m^3'
(PID.TID 0000.0001) > PTRACERS_initialFile(10)='ptracers_optimized_10.0000000001',
(PID.TID 0000.0001) ># tracer 11 - ZOO1Si
(PID.TID 0000.0001) > PTRACERS_names(11)='ZOO1Si',
(PID.TID 0000.0001) > PTRACERS_units(11)='mmol Si/m^3'
(PID.TID 0000.0001) > PTRACERS_initialFile(11)='ptracers_optimized_11.0000000001',
(PID.TID 0000.0001) ># tracer 12 - ZOO2P
(PID.TID 0000.0001) > PTRACERS_names(12)='ZOO2P',
(PID.TID 0000.0001) > PTRACERS_units(12)='mmol P/m^3',
(PID.TID 0000.0001) > PTRACERS_initialFile(12)='ptracers_optimized_12.0000000001',
(PID.TID 0000.0001) ># tracer 13 - ZOO2N
(PID.TID 0000.0001) > PTRACERS_names(13)='ZOO2N',
(PID.TID 0000.0001) > PTRACERS_units(13)='mmol N/m^3'
(PID.TID 0000.0001) > PTRACERS_initialFile(13)='ptracers_optimized_13.0000000001',
(PID.TID 0000.0001) ># tracer 14 - ZOO2Fe
(PID.TID 0000.0001) > PTRACERS_names(14)='ZOO2Fe',
(PID.TID 0000.0001) > PTRACERS_units(14)='mmol Fe/m^3'
(PID.TID 0000.0001) > PTRACERS_initialFile(14)='ptracers_optimized_14.0000000001',
(PID.TID 0000.0001) ># tracer 15 - ZOO2Si
(PID.TID 0000.0001) > PTRACERS_names(15)='ZOO2Si',
(PID.TID 0000.0001) > PTRACERS_units(15)='mmol Si/m^3'
(PID.TID 0000.0001) > PTRACERS_initialFile(15)='ptracers_optimized_15.0000000001',
(PID.TID 0000.0001) ># tracer 16 - POP
(PID.TID 0000.0001) > PTRACERS_names(16)='POP',
(PID.TID 0000.0001) > PTRACERS_units(16)='mmol P/m^3',
(PID.TID 0000.0001) > PTRACERS_initialFile(16)='ptracers_optimized_16.0000000001',
(PID.TID 0000.0001) ># tracer 17 - PON
(PID.TID 0000.0001) > PTRACERS_names(17)='PON',
(PID.TID 0000.0001) > PTRACERS_units(17)='mmol N/m^3',
(PID.TID 0000.0001) > PTRACERS_initialFile(17)='ptracers_optimized_17.0000000001',
(PID.TID 0000.0001) ># tracer 18 - POFe
(PID.TID 0000.0001) > PTRACERS_names(18)='POFe',
(PID.TID 0000.0001) > PTRACERS_units(18)='mmol Fe/m^3'
(PID.TID 0000.0001) > PTRACERS_initialFile(18)='ptracers_optimized_18.0000000001',
(PID.TID 0000.0001) ># tracer 19 - POSi
(PID.TID 0000.0001) > PTRACERS_names(19)='POSi',
(PID.TID 0000.0001) > PTRACERS_units(19)='mmol Si/m^3'
(PID.TID 0000.0001) > PTRACERS_initialFile(19)='ptracers_optimized_19.0000000001',
(PID.TID 0000.0001) ># tracer 20 - NH4
(PID.TID 0000.0001) > PTRACERS_names(20)='NH4',
(PID.TID 0000.0001) > PTRACERS_units(20)='mmol N/m^3'
(PID.TID 0000.0001) > PTRACERS_initialFile(20)='ptracers_optimized_20.0000000001',
(PID.TID 0000.0001) ># tracer 21 - NO2
(PID.TID 0000.0001) > PTRACERS_names(21)='NO2',
(PID.TID 0000.0001) > PTRACERS_units(21)='mmol N/m^3'
(PID.TID 0000.0001) > PTRACERS_initialFile(21)='ptracers_optimized_21.0000000001',
(PID.TID 0000.0001) ># tracer 22 - PHYT01
(PID.TID 0000.0001) > PTRACERS_names(22)='Phy01',
(PID.TID 0000.0001) > PTRACERS_units(22)='mmol P/m^3'
(PID.TID 0000.0001) > PTRACERS_initialFile(22)='ptracers_optimized_22.0000000001',
(PID.TID 0000.0001) ># tracer 23 - PHYT02
(PID.TID 0000.0001) > PTRACERS_names(23)='Phy02',
(PID.TID 0000.0001) > PTRACERS_units(23)='mmol P/m^3'
(PID.TID 0000.0001) > PTRACERS_initialFile(23)='ptracers_optimized_23.0000000001',
(PID.TID 0000.0001) ># tracer 24 - PHYT03
(PID.TID 0000.0001) > PTRACERS_names(24)='Phy03',
(PID.TID 0000.0001) > PTRACERS_units(24)='mmol P/m^3'
(PID.TID 0000.0001) > PTRACERS_initialFile(24)='ptracers_optimized_24.0000000001',
(PID.TID 0000.0001) ># tracer 25 - PHYT04
(PID.TID 0000.0001) > PTRACERS_names(25)='Phy04',
(PID.TID 0000.0001) > PTRACERS_units(25)='mmol P/m^3'
(PID.TID 0000.0001) > PTRACERS_initialFile(25)='ptracers_optimized_25.0000000001',
(PID.TID 0000.0001) ># tracer 26 - PHYT05
(PID.TID 0000.0001) > PTRACERS_names(26)='Phy05',
(PID.TID 0000.0001) > PTRACERS_units(26)='mmol P/m^3'
(PID.TID 0000.0001) > PTRACERS_initialFile(26)='ptracers_optimized_26.0000000001',
(PID.TID 0000.0001) ># tracer 27 - CHL01
(PID.TID 0000.0001) > PTRACERS_names(27)='Chl01',
(PID.TID 0000.0001) > PTRACERS_units(27)='mg Chla/m^3'
(PID.TID 0000.0001) > PTRACERS_initialFile(27)='ptracers_optimized_27.0000000001',
(PID.TID 0000.0001) ># tracer 28 - CHL02
(PID.TID 0000.0001) > PTRACERS_names(28)='Chl02',
(PID.TID 0000.0001) > PTRACERS_units(28)='mg Chla/m^3'
(PID.TID 0000.0001) > PTRACERS_initialFile(28)='ptracers_optimized_28.0000000001',
(PID.TID 0000.0001) ># tracer 29 - CHL03
(PID.TID 0000.0001) > PTRACERS_names(29)='Chl03',
(PID.TID 0000.0001) > PTRACERS_units(29)='mg Chla/m^3'
(PID.TID 0000.0001) > PTRACERS_initialFile(29)='ptracers_optimized_29.0000000001',
(PID.TID 0000.0001) ># tracer 30 - CHL04
(PID.TID 0000.0001) > PTRACERS_names(30)='Chl04',
(PID.TID 0000.0001) > PTRACERS_units(30)='mg Chla/m^3'
(PID.TID 0000.0001) > PTRACERS_initialFile(30)='ptracers_optimized_30.0000000001',
(PID.TID 0000.0001) ># tracer 31 - CHL05
(PID.TID 0000.0001) > PTRACERS_names(31)='Chl05',
(PID.TID 0000.0001) > PTRACERS_units(31)='mg Chla/m^3'
(PID.TID 0000.0001) > PTRACERS_initialFile(31)='ptracers_optimized_31.0000000001',
(PID.TID 0000.0001) ># tracer 32 - DIC
(PID.TID 0000.0001) > PTRACERS_names(32)='DIC',
(PID.TID 0000.0001) > PTRACERS_units(32)='mmol C/m^3'
(PID.TID 0000.0001) > PTRACERS_EvPrRn(32)= 0.
(PID.TID 0000.0001) > PTRACERS_initialFile(32)='ptracers_optimized_32.0000000001',
(PID.TID 0000.0001) ># tracer 33 - DOC
(PID.TID 0000.0001) > PTRACERS_names(33)='DOC',
(PID.TID 0000.0001) > PTRACERS_units(33)='mmol C/m^3'
(PID.TID 0000.0001) > PTRACERS_initialFile(33)='ptracers_optimized_33.0000000001',
(PID.TID 0000.0001) ># tracer 34 - POC
(PID.TID 0000.0001) > PTRACERS_names(34)='POC',
(PID.TID 0000.0001) > PTRACERS_units(34)='mmol C/m^3'
(PID.TID 0000.0001) > PTRACERS_initialFile(34)='ptracers_optimized_34.0000000001',
(PID.TID 0000.0001) ># tracer 35 - PIC
(PID.TID 0000.0001) > PTRACERS_names(35)='PIC',
(PID.TID 0000.0001) > PTRACERS_units(35)='mmol C/m^3'
(PID.TID 0000.0001) > PTRACERS_initialFile(35)='ptracers_optimized_35.0000000001',
(PID.TID 0000.0001) ># tracer 36 - ALK
(PID.TID 0000.0001) > PTRACERS_names(36)='ALK',
(PID.TID 0000.0001) > PTRACERS_units(36)='mmol eq/m^3'
(PID.TID 0000.0001) > PTRACERS_EvPrRn(36)= 0.
(PID.TID 0000.0001) > PTRACERS_initialFile(36)='ptracers_optimized_36.0000000001',
(PID.TID 0000.0001) ># tracer 37 - O2
(PID.TID 0000.0001) > PTRACERS_names(37)='O2',
(PID.TID 0000.0001) > PTRACERS_units(37)='mmol O/m^3'
(PID.TID 0000.0001) > PTRACERS_initialFile(37)='ptracers_optimized_37.0000000001',
(PID.TID 0000.0001) ># tracer 38 - ZOOC1
(PID.TID 0000.0001) > PTRACERS_names(38)='ZOOC1',
(PID.TID 0000.0001) > PTRACERS_units(38)='mmol C/m^3'
(PID.TID 0000.0001) > PTRACERS_initialFile(38)='ptracers_optimized_38.0000000001',
(PID.TID 0000.0001) ># tracer 39 - ZOOC2
(PID.TID 0000.0001) > PTRACERS_names(39)='ZOOC2',
(PID.TID 0000.0001) > PTRACERS_units(39)='mmol C/m^3'
(PID.TID 0000.0001) > PTRACERS_initialFile(39)='ptracers_optimized_39.0000000001',
(PID.TID 0000.0001) > /
(PID.TID 0000.0001) 
(PID.TID 0000.0001)  PTRACERS_READPARMS: finished reading data.ptracers
(PID.TID 0000.0001)  GCHEM_READPARMS: opening data.gchem
(PID.TID 0000.0001)  OPEN_COPY_DATA_FILE: opening file data.gchem
(PID.TID 0000.0001) // =======================================================
(PID.TID 0000.0001) // Parameter file "data.gchem"
(PID.TID 0000.0001) // =======================================================
(PID.TID 0000.0001) > &GCHEM_PARM01
(PID.TID 0000.0001) > useDARWIN=.TRUE.,
(PID.TID 0000.0001) >  nsubtime=1,
(PID.TID 0000.0001) > /
(PID.TID 0000.0001) 
(PID.TID 0000.0001)  GCHEM_READPARMS: finished reading data.gchem
(PID.TID 0000.0001)  DARWIN_READPARMS: opening data.darwin
(PID.TID 0000.0001)  OPEN_COPY_DATA_FILE: opening file data.darwin
(PID.TID 0000.0001) // =======================================================
(PID.TID 0000.0001) // Parameter file "data.darwin"
(PID.TID 0000.0001) // =======================================================
(PID.TID 0000.0001) > &DARWIN_FORCING
(PID.TID 0000.0001) > darwin_IronFile='3deg_Mahowald_2009_soluble_iron_dust.bin',
(PID.TID 0000.0001) > darwin_forcingPeriod=2629800.,
(PID.TID 0000.0001) > darwin_forcingCycle=31557600.,
(PID.TID 0000.0001) > darwin_seed=56,
(PID.TID 0000.0001) > /
(PID.TID 0000.0001) >
(PID.TID 0000.0001) > &DIC_FORCING
(PID.TID 0000.0001) >#DIC_windFile  = 'input/tren_speed_mth-2d.bin',
(PID.TID 0000.0001) >#DIC_atmospFile= ' ',
(PID.TID 0000.0001) > dic_int1=2,
(PID.TID 0000.0001) > dic_pCO2=370.D-6,
(PID.TID 0000.0001) > /
(PID.TID 0000.0001) >
(PID.TID 0000.0001) 
(PID.TID 0000.0001)  DARWIN_READPARMS: finished reading data.darwin
(PID.TID 0000.0001) // ===================================
(PID.TID 0000.0001) // darwin parameters
(PID.TID 0000.0001) // ===================================
(PID.TID 0000.0001) darwin_seed = /* seed for random number generator */
(PID.TID 0000.0001)                      56
(PID.TID 0000.0001)     ;
(PID.TID 0000.0001)  -----------------------------------
(PID.TID 0000.0001)  ===================================
(PID.TID 0000.0001) 
(PID.TID 0000.0001)  SEAICE_READPARMS: opening data.seaice
(PID.TID 0000.0001)  OPEN_COPY_DATA_FILE: opening file data.seaice
(PID.TID 0000.0001) // =======================================================
(PID.TID 0000.0001) // Parameter file "data.seaice"
(PID.TID 0000.0001) // =======================================================
(PID.TID 0000.0001) ># SEAICE parameters
(PID.TID 0000.0001) > &SEAICE_PARM01
(PID.TID 0000.0001) >      SEAICEuseTILT=.FALSE.,
(PID.TID 0000.0001) >      SEAICEpresH0=2.,
(PID.TID 0000.0001) >      SEAICEpresPow0=1,
(PID.TID 0000.0001) >      SEAICEpresPow1=3,
(PID.TID 0000.0001) >      SEAICE_multDim=1,
(PID.TID 0000.0001) >      SEAICErestoreUnderIce=.TRUE.,
(PID.TID 0000.0001) >      SEAICE_area_max=0.95,
(PID.TID 0000.0001) >#for backward compatibility (before 2011 june 19, those were the defaults)
(PID.TID 0000.0001) >#     SEAICE_area_floor=0.15,
(PID.TID 0000.0001) >#     SEAICE_area_reg=0.15,
(PID.TID 0000.0001) >      SEAICE_salt0=4.,
(PID.TID 0000.0001) ># for long time step:
(PID.TID 0000.0001) >#      SEAICE_deltaTevp   = 720.,
(PID.TID 0000.0001) ># for regular time step:
(PID.TID 0000.0001) >      SEAICE_deltaTevp   = 60.,
(PID.TID 0000.0001) ># for lsr:
(PID.TID 0000.0001) >#      LSR_ERROR          = 2.e-4,
(PID.TID 0000.0001) >      SEAICEuseDYNAMICS  = .TRUE.,
(PID.TID 0000.0001) ># BAD OPTION -- DO NOT USE -- SEAICE_maskRHS     = .TRUE.,
(PID.TID 0000.0001) >      MIN_ATEMP          = -40.,
(PID.TID 0000.0001) >      MIN_TICE           = -40.,
(PID.TID 0000.0001) >      SEAICEadvScheme    = 30,
(PID.TID 0000.0001) >      SEAICEuseFluxForm = .TRUE.,
(PID.TID 0000.0001) >      SEAICEadvSnow      = .TRUE.,
(PID.TID 0000.0001) >#      SEAICEadvSalt      = .TRUE.,
(PID.TID 0000.0001) >      SEAICEdiffKhHeff   = 400.,
(PID.TID 0000.0001) >      SEAICEdiffKhArea   = 400.,
(PID.TID 0000.0001) >      SEAICEdiffKhSnow   = 400.,
(PID.TID 0000.0001) >#      SEAICEdiffKhSalt   = 400.,
(PID.TID 0000.0001) >      SEAICEuseFlooding  = .TRUE.,
(PID.TID 0000.0001) >      SEAICE_mcPheePiston= 3.858024691358025E-05,
(PID.TID 0000.0001) >      SEAICE_frazilFrac  = 1.,
(PID.TID 0000.0001) >      SEAICE_mcPheeTaper = 0.,
(PID.TID 0000.0001) >      SEAICE_areaLossFormula=2,
(PID.TID 0000.0001) >      SEAICEheatConsFix  = .TRUE.,
(PID.TID 0000.0001) >      SEAICE_tempFrz0    = -1.96,
(PID.TID 0000.0001) >      SEAICE_dTempFrz_dS = 0.,
(PID.TID 0000.0001) >      SEAICEuseMetricTerms = .TRUE.,
(PID.TID 0000.0001) >      SEAICE_no_slip     = .FALSE.,
(PID.TID 0000.0001) >      SEAICE_clipVelocities = .TRUE.,
(PID.TID 0000.0001) >#take 33% out of (1-albedo)
(PID.TID 0000.0001) >      SEAICE_dryIceAlb   = 0.84,
(PID.TID 0000.0001) >      SEAICE_wetIceAlb   = 0.78,
(PID.TID 0000.0001) >      SEAICE_drySnowAlb  = 0.90,
(PID.TID 0000.0001) >      SEAICE_wetSnowAlb  = 0.8 ,
(PID.TID 0000.0001) >#default albedos
(PID.TID 0000.0001) >      SEAICE_dryIceAlb_south   = 0.75
(PID.TID 0000.0001) >      SEAICE_wetIceAlb_south   = 0.66
(PID.TID 0000.0001) >      SEAICE_drySnowAlb_south  = 0.84
(PID.TID 0000.0001) >      SEAICE_wetSnowAlb_south  = 0.7
(PID.TID 0000.0001) >#initial conditions
(PID.TID 0000.0001) >      AreaFile = 'Area.0005184000',
(PID.TID 0000.0001) >      HeffFile = 'Heff.0005184000',
(PID.TID 0000.0001) > /
(PID.TID 0000.0001) >#
(PID.TID 0000.0001) > &SEAICE_PARM02
(PID.TID 0000.0001) > /
(PID.TID 0000.0001) >
(PID.TID 0000.0001) 
(PID.TID 0000.0001)  SEAICE_READPARMS: finished reading data.seaice
(PID.TID 0000.0001) SALT_PLUME_READPARMS: opening data.salt_plume
(PID.TID 0000.0001)  OPEN_COPY_DATA_FILE: opening file data.salt_plume
(PID.TID 0000.0001) // =======================================================
(PID.TID 0000.0001) // Parameter file "data.salt_plume"
(PID.TID 0000.0001) // =======================================================
(PID.TID 0000.0001) > &SALT_PLUME_PARM01
(PID.TID 0000.0001) > SPsalFRAC= 0.5D0,
(PID.TID 0000.0001) > /
(PID.TID 0000.0001) 
(PID.TID 0000.0001) SALT_PLUME_READPARMS: finished reading data.salt_plume
(PID.TID 0000.0001)  DIAGNOSTICS_READPARMS: opening data.diagnostics
(PID.TID 0000.0001)  OPEN_COPY_DATA_FILE: opening file data.diagnostics
(PID.TID 0000.0001) // =======================================================
(PID.TID 0000.0001) // Parameter file "data.diagnostics"
(PID.TID 0000.0001) // =======================================================
(PID.TID 0000.0001) ># Diagnostic Package Choices
(PID.TID 0000.0001) >#-----------------
(PID.TID 0000.0001) ># for each output-stream:
(PID.TID 0000.0001) >#  filename(n) : prefix of the output file name (only 8.c long) for outp.stream n
(PID.TID 0000.0001) >#  frequency(n):< 0 : write snap-shot output every multiple of |frequency| (iter)
(PID.TID 0000.0001) >#               > 0 : write time-average output every multiple of frequency (iter)
(PID.TID 0000.0001) >#  levels(:,n) : list of levels to write to file (Notes: declared as REAL)
(PID.TID 0000.0001) >#                 when this entry is missing, select all common levels of this list
(PID.TID 0000.0001) >#  fields(:,n) : list of diagnostics fields (8.c) (see "available_diagnostics" file
(PID.TID 0000.0001) >#                 for the list of all available diag. in this particular config)
(PID.TID 0000.0001) >#--------------------------------------------------------------------
(PID.TID 0000.0001) >#
(PID.TID 0000.0001) ># 6-hourly 2-D fields:
(PID.TID 0000.0001) ># ====================
(PID.TID 0000.0001) >#
(PID.TID 0000.0001) ># ETAN     Perturbation of Surface (pressure, height) (Pa,m)
(PID.TID 0000.0001) ># PHIBOT   ocean bottom pressure / top. atmos geo-Potential
(PID.TID 0000.0001) ># oceTAUX  zonal surface wind stress, >0 increases uVel (N/m^2)
(PID.TID 0000.0001) ># oceTAUY  meridional surf. wind stress, >0 increases vVel (N/m^2)
(PID.TID 0000.0001) ># surForcT model surface forcing for Temperature, >0 increases theta (W/m^2)
(PID.TID 0000.0001) ># oceQsw   net Short-Wave radiation (+=down), >0 increases theta (W/m^2)
(PID.TID 0000.0001) ># surForcS model surface forcing for Salinity, >0 increases salinity (g/m^2/s)
(PID.TID 0000.0001) ># KPPhbl   KPP boundary layer depth, bulk Ri criterion
(PID.TID 0000.0001) ># KPPmld   Mixed layer depth, dT=.8degC density criterion
(PID.TID 0000.0001) ># SSS      Sea Surface Salinity (g/kg)
(PID.TID 0000.0001) ># SST      Sea Surface Temperature (degC,K)
(PID.TID 0000.0001) ># UVEL_k2  Zonal Component of Velocity at level 2 (m/s)
(PID.TID 0000.0001) ># VVEL_k2  Meridional Component of Velocity at level 2 (m/s)
(PID.TID 0000.0001) >#
(PID.TID 0000.0001) ># daily 2-D fields:
(PID.TID 0000.0001) ># =================
(PID.TID 0000.0001) >#
(PID.TID 0000.0001) ># SIarea   SEAICE fractional ice-covered area [0 to 1]
(PID.TID 0000.0001) ># SIheff   SEAICE effective ice thickness (m)
(PID.TID 0000.0001) ># SIuice   SEAICE zonal ice velocity, >0 from West to East (m/s)
(PID.TID 0000.0001) ># SIvice   SEAICE merid. ice velocity, >0 from South to North (m/s)
(PID.TID 0000.0001) ># SIhsnow  SEAICE snow thickness (m)
(PID.TID 0000.0001) ># SIhsalt  SEAICE effective salinity (g/m^2)
(PID.TID 0000.0001) >#
(PID.TID 0000.0001) ># monthly 2-D fields:
(PID.TID 0000.0001) ># ===================
(PID.TID 0000.0001) >#
(PID.TID 0000.0001) ># ETANSQ   Square of Perturbation of Sfc (Pa2,m2)
(PID.TID 0000.0001) ># EXFhs    Sensible heat flux into ocean, >0 increases theta (W/m^2)
(PID.TID 0000.0001) ># EXFhl    Latent heat flux into ocean, >0 increases theta (W/m^2)
(PID.TID 0000.0001) ># EXFlwnet Net upward longwave radiation, >0 decreases theta (W/m^2)
(PID.TID 0000.0001) ># oceFWflx net surface Fresh-Water flux into ocean, >0 decreases salinity (kg/m^2/s)
(PID.TID 0000.0001) ># oceSflux net surface Salt flux into the ocean, >0 increases salinity (g/m^2/s)
(PID.TID 0000.0001) ># oceQnet  net surface heat flux into the ocean, >0 increases theta (W/m^2)
(PID.TID 0000.0001) ># SRELAX   surface salinity relaxation, >0 increases salt (g/m^2/s)
(PID.TID 0000.0001) ># TFLUX    total heat flux (match heat-content variations), >0 increases theta (W/m^2)
(PID.TID 0000.0001) ># SFLUX    total salt flux (match salt-content variations), >0 increases salt (g/m^2/s)
(PID.TID 0000.0001) >#
(PID.TID 0000.0001) ># monthly 3-D fields:
(PID.TID 0000.0001) ># ===================
(PID.TID 0000.0001) >#
(PID.TID 0000.0001) ># SALTanom Salt anomaly (=SALT-35; g/kg)
(PID.TID 0000.0001) ># THETA    Potential Temperature (degC,K)
(PID.TID 0000.0001) ># UVELMASS Zonal Mass-Weighted Comp of Velocity (m/s)
(PID.TID 0000.0001) ># VVELMASS Meridional Mass-Weighted Comp of Velocity (m/s)
(PID.TID 0000.0001) ># WVELMASS Vertical Mass-Weighted Comp of Velocity (m/s)
(PID.TID 0000.0001) >#
(PID.TID 0000.0001) ># SALTSQan Square of Salt anomaly (=(SALT-35)^2 (g^2/kg^2)
(PID.TID 0000.0001) ># THETASQ  Square of Potential Temperature (K2)
(PID.TID 0000.0001) ># UVELSQ   Square of Zonal Comp of Velocity (m2/s2)
(PID.TID 0000.0001) ># VVELSQ   Square of Meridional Comp of Velocity (m2/s2)
(PID.TID 0000.0001) ># WVELSQ   Square of Vertical Comp of Velocity (m2/s2)
(PID.TID 0000.0001) ># UV_VEL_Z Meridional Transport of Zonal Momentum (m2/s2)
(PID.TID 0000.0001) ># WU_VEL   Vertical Transport of Zonal Momentum (m^2/s^2)
(PID.TID 0000.0001) ># WV_VEL   Vertical Transport of Meridional Momentum (m^2/s^2)
(PID.TID 0000.0001) >#
(PID.TID 0000.0001) ># UTHMASS  Zonal Mass-Weight Transp of Pot Temp (K.m/s)
(PID.TID 0000.0001) ># VTHMASS  Meridional Mass-Weight Transp of Pot Temp (K.m/s)
(PID.TID 0000.0001) ># WTHMASS  Vertical Mass-Weight Transp of Pot Temp (K.m/s)
(PID.TID 0000.0001) ># USLTMASS Zonal Mass-Weight Transp of Salt (g/kg.m/s)
(PID.TID 0000.0001) ># VSLTMASS Meridional Mass-Weight Transp of Salt (g/kg.m/s)
(PID.TID 0000.0001) ># WSLTMASS Vertical Mass-Weight Transp of Salt (g/kg.m/s)
(PID.TID 0000.0001) >#
(PID.TID 0000.0001) ># RHOAnoma Density Anomaly (=Rho-rhoConst; kg/m^3)
(PID.TID 0000.0001) ># DRHODR   Stratification: d.Sigma/dr (kg/m3/r_unit; kg/m^4)
(PID.TID 0000.0001) ># RHOANOSQ Square of Density Anomaly (=(Rho-rhoConst)^2; kg^2/m^6)
(PID.TID 0000.0001) ># URHOMASS Zonal Transport of Density (kg/m^2/s)
(PID.TID 0000.0001) ># VRHOMASS Meridional Transport of Density (kg/m^2/s)
(PID.TID 0000.0001) ># WRHOMASS Vertical Transport of Potential Density (kg/m^2/s)
(PID.TID 0000.0001) >#
(PID.TID 0000.0001) > &diagnostics_list
(PID.TID 0000.0001) >  frequency(1)  = -2635200.,
(PID.TID 0000.0001) >   timePhase(1) = 0.,
(PID.TID 0000.0001) >   fields(1,1)  = 'ETAN    ',
(PID.TID 0000.0001) >   filename(1)  = 'ETAN_snap',
(PID.TID 0000.0001) >  frequency(2) = 2635200.,
(PID.TID 0000.0001) >   fields(1,2) = 'SALTanom',
(PID.TID 0000.0001) >   filename(2) = 'SALTanom',
(PID.TID 0000.0001) >  frequency(3) = 2635200.,
(PID.TID 0000.0001) >   fields(1,3) = 'THETA   ',
(PID.TID 0000.0001) >   filename(3) = 'THETA',
(PID.TID 0000.0001) >  frequency(4) = 2635200.,
(PID.TID 0000.0001) >   fields(1,4) = 'TRAC32  ',
(PID.TID 0000.0001) >   filename(4) = 'DIC',
(PID.TID 0000.0001) >  frequency(5) = 86400.,
(PID.TID 0000.0001) >   fields(1,5) = 'DICTFLX ',
(PID.TID 0000.0001) >   filename(5) = 'DICTFLX',
(PID.TID 0000.0001) >  frequency(6) = 86400.,
(PID.TID 0000.0001) >   fields(1,6) = 'DICOFLX ',
(PID.TID 0000.0001) >   filename(6) = 'DICOFLX',
(PID.TID 0000.0001) >  frequency(7) = 86400.,
(PID.TID 0000.0001) >   fields(1,7) = 'DICCFLX ',
(PID.TID 0000.0001) >   filename(7) = 'DICCFLX',
(PID.TID 0000.0001) >  frequency(8) = 86400.,
(PID.TID 0000.0001) >   fields(1,8) = 'DICPCO2 ',
(PID.TID 0000.0001) >   filename(8) = 'DICPCO2',
(PID.TID 0000.0001) >  frequency(9) = 86400.,
(PID.TID 0000.0001) >   fields(1,9) = 'DICPHAV ',
(PID.TID 0000.0001) >   filename(9) = 'DICPHAV',
(PID.TID 0000.0001) >  frequency(10) = 2635200.,
(PID.TID 0000.0001) >   fields(1,10) = 'TRAC01  ',
(PID.TID 0000.0001) >   filename(10) = 'PO4',
(PID.TID 0000.0001) >  frequency(11) = 2635200.,
(PID.TID 0000.0001) >   fields(1,11) = 'TRAC02  ',
(PID.TID 0000.0001) >   filename(11) = 'NO3',
(PID.TID 0000.0001) >  frequency(12) = 2635200.,
(PID.TID 0000.0001) >   fields(1,12) = 'TRAC03  ',
(PID.TID 0000.0001) >   filename(12) = 'FeT',
(PID.TID 0000.0001) >  frequency(13) = 2635200.,
(PID.TID 0000.0001) >   fields(1,13) = 'TRAC04  ',
(PID.TID 0000.0001) >   filename(13) = 'SiO2',
(PID.TID 0000.0001) >  frequency(14) = 2635200.,
(PID.TID 0000.0001) >   fields(1,14) = 'TRAC05  ',
(PID.TID 0000.0001) >   filename(14) = 'DOP',
(PID.TID 0000.0001) >  frequency(15) = 2635200.,
(PID.TID 0000.0001) >   fields(1,15) = 'TRAC06  ',
(PID.TID 0000.0001) >   filename(15) = 'DON',
(PID.TID 0000.0001) >  frequency(16) = 2635200.,
(PID.TID 0000.0001) >   fields(1,16) = 'TRAC07  ',
(PID.TID 0000.0001) >   filename(16) = 'DOFe',
(PID.TID 0000.0001) >  frequency(17) = 2635200.,
(PID.TID 0000.0001) >   fields(1,17) = 'TRAC08  ',
(PID.TID 0000.0001) >   filename(17) = 'ZOO1P',
(PID.TID 0000.0001) >  frequency(18) = 2635200.,
(PID.TID 0000.0001) >   fields(1,18) = 'TRAC09  ',
(PID.TID 0000.0001) >   filename(18) = 'ZOO1N',
(PID.TID 0000.0001) >  frequency(19) = 2635200.,
(PID.TID 0000.0001) >   fields(1,19) = 'TRAC10  ',
(PID.TID 0000.0001) >   filename(19) = 'ZOO1Fe',
(PID.TID 0000.0001) >  frequency(20) = 2635200.,
(PID.TID 0000.0001) >   fields(1,20) = 'TRAC11  ',
(PID.TID 0000.0001) >   filename(20) = 'ZOO1Si',
(PID.TID 0000.0001) >  frequency(21) = 2635200.,
(PID.TID 0000.0001) >   fields(1,21) = 'TRAC12  ',
(PID.TID 0000.0001) >   filename(21) = 'ZOO2P',
(PID.TID 0000.0001) >  frequency(22) = 2635200.,
(PID.TID 0000.0001) >   fields(1,22) = 'TRAC13  ',
(PID.TID 0000.0001) >   filename(22) = 'ZOO2N',
(PID.TID 0000.0001) >  frequency(23) = 2635200.,
(PID.TID 0000.0001) >   fields(1,23) = 'TRAC14  ',
(PID.TID 0000.0001) >   filename(23) = 'ZOO2Fe',
(PID.TID 0000.0001) >  frequency(24) = 2635200.,
(PID.TID 0000.0001) >   fields(1,24) = 'TRAC15  ',
(PID.TID 0000.0001) >   filename(24) = 'ZOO2Si',
(PID.TID 0000.0001) >  frequency(25) = 2635200.,
(PID.TID 0000.0001) >   fields(1,25) = 'TRAC16  ',
(PID.TID 0000.0001) >   filename(25) = 'POP',
(PID.TID 0000.0001) >  frequency(26) = 2635200.,
(PID.TID 0000.0001) >   fields(1,26) = 'TRAC17  ',
(PID.TID 0000.0001) >   filename(26) = 'PON',
(PID.TID 0000.0001) >  frequency(27) = 2635200.,
(PID.TID 0000.0001) >   fields(1,27) = 'TRAC18  ',
(PID.TID 0000.0001) >   filename(27) = 'POFe',
(PID.TID 0000.0001) >  frequency(28) = 2635200.,
(PID.TID 0000.0001) >   fields(1,28) = 'TRAC19  ',
(PID.TID 0000.0001) >   filename(28) = 'POSi',
(PID.TID 0000.0001) >  frequency(29) = 2635200.,
(PID.TID 0000.0001) >   fields(1,29) = 'TRAC20  ',
(PID.TID 0000.0001) >   filename(29) = 'NH4',
(PID.TID 0000.0001) >  frequency(30) = 2635200.,
(PID.TID 0000.0001) >   fields(1,30) = 'TRAC21  ',
(PID.TID 0000.0001) >   filename(30) = 'NO2',
(PID.TID 0000.0001) >  frequency(31) = 2635200.,
(PID.TID 0000.0001) >   fields(1,31) = 'TRAC22  ',
(PID.TID 0000.0001) >   filename(31) = 'Phy01',
(PID.TID 0000.0001) >  frequency(32) = 2635200.,
(PID.TID 0000.0001) >   fields(1,32) = 'TRAC23  ',
(PID.TID 0000.0001) >   filename(32) = 'Phy02',
(PID.TID 0000.0001) >  frequency(33) = 2635200.,
(PID.TID 0000.0001) >   fields(1,33) = 'TRAC24  ',
(PID.TID 0000.0001) >   filename(33) = 'Phy03',
(PID.TID 0000.0001) >  frequency(34) = 2635200.,
(PID.TID 0000.0001) >   fields(1,34) = 'TRAC25  ',
(PID.TID 0000.0001) >   filename(34) = 'Phy04',
(PID.TID 0000.0001) >  frequency(35) = 2635200.,
(PID.TID 0000.0001) >   fields(1,35) = 'TRAC26  ',
(PID.TID 0000.0001) >   filename(35) = 'Phy05',
(PID.TID 0000.0001) >  frequency(36) = 2635200.,
(PID.TID 0000.0001) >   fields(1,36) = 'TRAC33  ',
(PID.TID 0000.0001) >   filename(36) = 'DOC',
(PID.TID 0000.0001) >  frequency(37) = 2635200.,
(PID.TID 0000.0001) >   fields(1,37) = 'TRAC34  ',
(PID.TID 0000.0001) >   filename(37) = 'POC',
(PID.TID 0000.0001) >  frequency(38) = 2635200.,
(PID.TID 0000.0001) >   fields(1,38) = 'TRAC35  ',
(PID.TID 0000.0001) >   filename(38) = 'PIC',
(PID.TID 0000.0001) >  frequency(39) = 2635200.,
(PID.TID 0000.0001) >   fields(1,39) = 'TRAC36  ',
(PID.TID 0000.0001) >   filename(39) = 'ALK',
(PID.TID 0000.0001) >  frequency(40) = 2635200.,
(PID.TID 0000.0001) >   fields(1,40) = 'TRAC37  ',
(PID.TID 0000.0001) >   filename(40) = 'O2',
(PID.TID 0000.0001) >  frequency(41) = 2635200.,
(PID.TID 0000.0001) >   fields(1,41) = 'TRAC38  ',
(PID.TID 0000.0001) >   filename(41) = 'ZOOC1',
(PID.TID 0000.0001) >  frequency(42) = 2635200.,
(PID.TID 0000.0001) >   fields(1,42) = 'TRAC39  ',
(PID.TID 0000.0001) >   filename(42) = 'ZOOC2',
(PID.TID 0000.0001) >  frequency(43) = 2635200.,
(PID.TID 0000.0001) >   fields(1,43) = 'TRAC27  ',
(PID.TID 0000.0001) >   filename(43) = 'CHL1',
(PID.TID 0000.0001) >  frequency(44) = 2635200.,
(PID.TID 0000.0001) >   fields(1,44) = 'TRAC28  ',
(PID.TID 0000.0001) >   filename(44) = 'CHL2',
(PID.TID 0000.0001) >  frequency(45) = 2635200.,
(PID.TID 0000.0001) >   fields(1,45) = 'TRAC29  ',
(PID.TID 0000.0001) >   filename(45) = 'CHL3',
(PID.TID 0000.0001) >  frequency(46) = 2635200.,
(PID.TID 0000.0001) >   fields(1,46) = 'TRAC30  ',
(PID.TID 0000.0001) >   filename(46) = 'CHL4',
(PID.TID 0000.0001) >  frequency(47) = 2635200.,
(PID.TID 0000.0001) >   fields(1,47) = 'TRAC31  ',
(PID.TID 0000.0001) >   filename(47) = 'CHL5',
(PID.TID 0000.0001) >  frequency(48) = 86400.,
(PID.TID 0000.0001) >   fields(1,48) = 'EXFwspee ',
(PID.TID 0000.0001) >   filename(48) = 'EXFwspee',
(PID.TID 0000.0001) >  frequency(49)  = 2635200.,
(PID.TID 0000.0001) >   fields(1,49)  = 'PAR    ',
(PID.TID 0000.0001) >   filename(49)  = 'PAR',
(PID.TID 0000.0001) >  frequency(50)  = 2635200.,
(PID.TID 0000.0001) >   fields(1,50)  = 'PP',
(PID.TID 0000.0001) >   filename(50)  = 'PP',
(PID.TID 0000.0001) >  frequency(51) = 2635200.,
(PID.TID 0000.0001) >   fields(1,51) = 'SIarea ',
(PID.TID 0000.0001) >   filename(51) = 'SIarea_month',
(PID.TID 0000.0001) >  frequency(52) = 2635200.,
(PID.TID 0000.0001) >   fields(1,52) = 'SIheff ',
(PID.TID 0000.0001) >   filename(52) = 'SIheff_month',
(PID.TID 0000.0001) >  frequency(53) = 2635200.,
(PID.TID 0000.0001) >   fields(1,53) = 'EXFapco2 ',
(PID.TID 0000.0001) >   filename(53) = 'EXFapco2_month',
(PID.TID 0000.0001) >  frequency(54) = -2535200.,
(PID.TID 0000.0001) >   fields(1,54) = 'EXFapco2 ',
(PID.TID 0000.0001) >   timePhase(54) = 0.,
(PID.TID 0000.0001) >   filename(54) = 'EXFapco2_snap',
(PID.TID 0000.0001) >
(PID.TID 0000.0001) >  frequency(55) = 10800.,
(PID.TID 0000.0001) >   fields(1,55) = 'DICCFLX ',
(PID.TID 0000.0001) >   filename(55) = 'DICCFLX_3hrly',
(PID.TID 0000.0001) >  frequency(56) = 2635200.,
(PID.TID 0000.0001) >   fields(1,56) = 'DICFGCO2',
(PID.TID 0000.0001) >   filename(56) = 'DICFGCO2',
(PID.TID 0000.0001) >  frequency(57) = 2635200.,
(PID.TID 0000.0001) >   fields(1,57) = 'UE_VEL_C',
(PID.TID 0000.0001) >   filename(57) = 'UE_VEL_C',
(PID.TID 0000.0001) >  frequency(58) = 2635200.,
(PID.TID 0000.0001) >   fields(1,58) = 'VN_VEL_C',
(PID.TID 0000.0001) >   filename(58) = 'VN_VEL_C',
(PID.TID 0000.0001) >  frequency(59) = 2635200.,
(PID.TID 0000.0001) >   fields(1,59) = 'WVEL     ',
(PID.TID 0000.0001) >   filename(59) = 'WVEL',
(PID.TID 0000.0001) >  frequency(60) = 2635200.,
(PID.TID 0000.0001) >   fields(1,60) = 'DICCFLX  ',
(PID.TID 0000.0001) >   filename(60) = 'DICCFLX_month',
(PID.TID 0000.0001) >  frequency(61) = 2635200.,
(PID.TID 0000.0001) >   fields(1,61) = 'DICPCO2  ',
(PID.TID 0000.0001) >   filename(61) = 'DICPCO2_month',
(PID.TID 0000.0001) >  frequency(62) = 2635200.,
(PID.TID 0000.0001) >   fields(1,62) = 'DICOFLX ',
(PID.TID 0000.0001) >   filename(62) = 'DICOFLX_month',
(PID.TID 0000.0001) > frequency(63) = 2635200.,
(PID.TID 0000.0001) >   fields(1,63) = 'oceQsw  ',
(PID.TID 0000.0001) >   filename(63) = 'oceQsw_month',
(PID.TID 0000.0001) > frequency(64) = 2635200.,
(PID.TID 0000.0001) >   fields(1,64) = 'oceQnet ',
(PID.TID 0000.0001) >   filename(64) = 'oceQnet_month',
(PID.TID 0000.0001) > frequency(65) = 2635200.,
(PID.TID 0000.0001) >   fields(1,65) = 'EXFwspee ',
(PID.TID 0000.0001) >   filename(65) = 'EXFwspee_month',
(PID.TID 0000.0001) >
(PID.TID 0000.0001) > /
(PID.TID 0000.0001) >
(PID.TID 0000.0001) ># Parameter for Diagnostics of per level statistics:
(PID.TID 0000.0001) >#-----------------
(PID.TID 0000.0001) ># for each output-stream:
(PID.TID 0000.0001) >#  stat_fname(n) : prefix of the output file name (only 8.c long) for
(PID.TID 0000.0001) >#outp.stream n
(PID.TID 0000.0001) >#  stat_freq(n):< 0 : write snap-shot output every |stat_freq| seconds
(PID.TID 0000.0001) >#               > 0 : write time-average output every stat_freq seconds
(PID.TID 0000.0001) >#  stat_phase(n)    : write at time = stat_phase + multiple of |stat_freq|
(PID.TID 0000.0001) >#  stat_region(:,n) : list of "regions" (default: 1 region only=global)
(PID.TID 0000.0001) >#  stat_fields(:,n) : list of diagnostics fields (8.c) (see
(PID.TID 0000.0001) >#"available_diagnostics.log"
(PID.TID 0000.0001) >#                 file for the list of all available diag. in this particular
(PID.TID 0000.0001) >#config)
(PID.TID 0000.0001) >#-----------------
(PID.TID 0000.0001) > &DIAG_STATIS_PARMS
(PID.TID 0000.0001) >#- an example just to check the agreement with MONITOR output:
(PID.TID 0000.0001) >#stat_fields(1,1)= 'ETAN    ','UVEL    ','VVEL    ','WVEL    ', 'THETA   ',
(PID.TID 0000.0001) >#   stat_fname(1)= 'dynStDiag',
(PID.TID 0000.0001) >#    stat_freq(1)= -864000.,
(PID.TID 0000.0001) >#   stat_phase(1)= 0.,
(PID.TID 0000.0001) > /
(PID.TID 0000.0001) 
(PID.TID 0000.0001) S/R DIAGNOSTICS_READPARMS, read namelist "diagnostics_list": start
(PID.TID 0000.0001) S/R DIAGNOSTICS_READPARMS, read namelist "diagnostics_list": OK
(PID.TID 0000.0001) S/R DIAGNOSTICS_READPARMS, read namelist "DIAG_STATIS_PARMS": start
(PID.TID 0000.0001) S/R DIAGNOSTICS_READPARMS, read namelist "DIAG_STATIS_PARMS": OK
(PID.TID 0000.0001)  DIAGNOSTICS_READPARMS: global parameter summary:
(PID.TID 0000.0001)  dumpAtLast = /* always write time-ave diags at the end */
(PID.TID 0000.0001)                   F
(PID.TID 0000.0001)     ;
(PID.TID 0000.0001)  diag_mnc =   /* write NetCDF output files */
(PID.TID 0000.0001)                   F
(PID.TID 0000.0001)     ;
(PID.TID 0000.0001)  useMissingValue = /* put MissingValue where mask = 0 */
(PID.TID 0000.0001)                   F
(PID.TID 0000.0001)     ;
(PID.TID 0000.0001)  diagCG_maxIters = /* max number of iters in diag_cg2d */
(PID.TID 0000.0001)                     300
(PID.TID 0000.0001)     ;
(PID.TID 0000.0001)  diagCG_resTarget = /* residual target for diag_cg2d */
(PID.TID 0000.0001)                 1.000000000000000E-07
(PID.TID 0000.0001)     ;
(PID.TID 0000.0001)  diagCG_pcOffDFac = /* preconditioner off-diagonal factor */
(PID.TID 0000.0001)                 9.611687812379854E-01
(PID.TID 0000.0001)     ;
(PID.TID 0000.0001) -----------------------------------------------------
(PID.TID 0000.0001)  DIAGNOSTICS_READPARMS: active diagnostics summary:
(PID.TID 0000.0001) -----------------------------------------------------
(PID.TID 0000.0001) Creating Output Stream: ETAN_snap
(PID.TID 0000.0001) Output Frequency:   -2635200.000000 ; Phase:           0.000000
(PID.TID 0000.0001)  Averaging Freq.:          0.000000 , Phase:           0.000000 , Cycle:   1
(PID.TID 0000.0001)  missing value: -9.990000000000E+02
(PID.TID 0000.0001)  Levels:    will be set later
(PID.TID 0000.0001)  Fields:    ETAN
(PID.TID 0000.0001) Creating Output Stream: SALTanom
(PID.TID 0000.0001) Output Frequency:    2635200.000000 ; Phase:           0.000000
(PID.TID 0000.0001)  Averaging Freq.:    2635200.000000 , Phase:           0.000000 , Cycle:   1
(PID.TID 0000.0001)  missing value: -9.990000000000E+02
(PID.TID 0000.0001)  Levels:    will be set later
(PID.TID 0000.0001)  Fields:    SALTanom
(PID.TID 0000.0001) Creating Output Stream: THETA
(PID.TID 0000.0001) Output Frequency:    2635200.000000 ; Phase:           0.000000
(PID.TID 0000.0001)  Averaging Freq.:    2635200.000000 , Phase:           0.000000 , Cycle:   1
(PID.TID 0000.0001)  missing value: -9.990000000000E+02
(PID.TID 0000.0001)  Levels:    will be set later
(PID.TID 0000.0001)  Fields:    THETA
(PID.TID 0000.0001) Creating Output Stream: DIC
(PID.TID 0000.0001) Output Frequency:    2635200.000000 ; Phase:           0.000000
(PID.TID 0000.0001)  Averaging Freq.:    2635200.000000 , Phase:           0.000000 , Cycle:   1
(PID.TID 0000.0001)  missing value: -9.990000000000E+02
(PID.TID 0000.0001)  Levels:    will be set later
(PID.TID 0000.0001)  Fields:    TRAC32
(PID.TID 0000.0001) Creating Output Stream: DICTFLX
(PID.TID 0000.0001) Output Frequency:      86400.000000 ; Phase:           0.000000
(PID.TID 0000.0001)  Averaging Freq.:      86400.000000 , Phase:           0.000000 , Cycle:   1
(PID.TID 0000.0001)  missing value: -9.990000000000E+02
(PID.TID 0000.0001)  Levels:    will be set later
(PID.TID 0000.0001)  Fields:    DICTFLX
(PID.TID 0000.0001) Creating Output Stream: DICOFLX
(PID.TID 0000.0001) Output Frequency:      86400.000000 ; Phase:           0.000000
(PID.TID 0000.0001)  Averaging Freq.:      86400.000000 , Phase:           0.000000 , Cycle:   1
(PID.TID 0000.0001)  missing value: -9.990000000000E+02
(PID.TID 0000.0001)  Levels:    will be set later
(PID.TID 0000.0001)  Fields:    DICOFLX
(PID.TID 0000.0001) Creating Output Stream: DICCFLX
(PID.TID 0000.0001) Output Frequency:      86400.000000 ; Phase:           0.000000
(PID.TID 0000.0001)  Averaging Freq.:      86400.000000 , Phase:           0.000000 , Cycle:   1
(PID.TID 0000.0001)  missing value: -9.990000000000E+02
(PID.TID 0000.0001)  Levels:    will be set later
(PID.TID 0000.0001)  Fields:    DICCFLX
(PID.TID 0000.0001) Creating Output Stream: DICPCO2
(PID.TID 0000.0001) Output Frequency:      86400.000000 ; Phase:           0.000000
(PID.TID 0000.0001)  Averaging Freq.:      86400.000000 , Phase:           0.000000 , Cycle:   1
(PID.TID 0000.0001)  missing value: -9.990000000000E+02
(PID.TID 0000.0001)  Levels:    will be set later
(PID.TID 0000.0001)  Fields:    DICPCO2
(PID.TID 0000.0001) Creating Output Stream: DICPHAV
(PID.TID 0000.0001) Output Frequency:      86400.000000 ; Phase:           0.000000
(PID.TID 0000.0001)  Averaging Freq.:      86400.000000 , Phase:           0.000000 , Cycle:   1
(PID.TID 0000.0001)  missing value: -9.990000000000E+02
(PID.TID 0000.0001)  Levels:    will be set later
(PID.TID 0000.0001)  Fields:    DICPHAV
(PID.TID 0000.0001) Creating Output Stream: PO4
(PID.TID 0000.0001) Output Frequency:    2635200.000000 ; Phase:           0.000000
(PID.TID 0000.0001)  Averaging Freq.:    2635200.000000 , Phase:           0.000000 , Cycle:   1
(PID.TID 0000.0001)  missing value: -9.990000000000E+02
(PID.TID 0000.0001)  Levels:    will be set later
(PID.TID 0000.0001)  Fields:    TRAC01
(PID.TID 0000.0001) Creating Output Stream: NO3
(PID.TID 0000.0001) Output Frequency:    2635200.000000 ; Phase:           0.000000
(PID.TID 0000.0001)  Averaging Freq.:    2635200.000000 , Phase:           0.000000 , Cycle:   1
(PID.TID 0000.0001)  missing value: -9.990000000000E+02
(PID.TID 0000.0001)  Levels:    will be set later
(PID.TID 0000.0001)  Fields:    TRAC02
(PID.TID 0000.0001) Creating Output Stream: FeT
(PID.TID 0000.0001) Output Frequency:    2635200.000000 ; Phase:           0.000000
(PID.TID 0000.0001)  Averaging Freq.:    2635200.000000 , Phase:           0.000000 , Cycle:   1
(PID.TID 0000.0001)  missing value: -9.990000000000E+02
(PID.TID 0000.0001)  Levels:    will be set later
(PID.TID 0000.0001)  Fields:    TRAC03
(PID.TID 0000.0001) Creating Output Stream: SiO2
(PID.TID 0000.0001) Output Frequency:    2635200.000000 ; Phase:           0.000000
(PID.TID 0000.0001)  Averaging Freq.:    2635200.000000 , Phase:           0.000000 , Cycle:   1
(PID.TID 0000.0001)  missing value: -9.990000000000E+02
(PID.TID 0000.0001)  Levels:    will be set later
(PID.TID 0000.0001)  Fields:    TRAC04
(PID.TID 0000.0001) Creating Output Stream: DOP
(PID.TID 0000.0001) Output Frequency:    2635200.000000 ; Phase:           0.000000
(PID.TID 0000.0001)  Averaging Freq.:    2635200.000000 , Phase:           0.000000 , Cycle:   1
(PID.TID 0000.0001)  missing value: -9.990000000000E+02
(PID.TID 0000.0001)  Levels:    will be set later
(PID.TID 0000.0001)  Fields:    TRAC05
(PID.TID 0000.0001) Creating Output Stream: DON
(PID.TID 0000.0001) Output Frequency:    2635200.000000 ; Phase:           0.000000
(PID.TID 0000.0001)  Averaging Freq.:    2635200.000000 , Phase:           0.000000 , Cycle:   1
(PID.TID 0000.0001)  missing value: -9.990000000000E+02
(PID.TID 0000.0001)  Levels:    will be set later
(PID.TID 0000.0001)  Fields:    TRAC06
(PID.TID 0000.0001) Creating Output Stream: DOFe
(PID.TID 0000.0001) Output Frequency:    2635200.000000 ; Phase:           0.000000
(PID.TID 0000.0001)  Averaging Freq.:    2635200.000000 , Phase:           0.000000 , Cycle:   1
(PID.TID 0000.0001)  missing value: -9.990000000000E+02
(PID.TID 0000.0001)  Levels:    will be set later
(PID.TID 0000.0001)  Fields:    TRAC07
(PID.TID 0000.0001) Creating Output Stream: ZOO1P
(PID.TID 0000.0001) Output Frequency:    2635200.000000 ; Phase:           0.000000
(PID.TID 0000.0001)  Averaging Freq.:    2635200.000000 , Phase:           0.000000 , Cycle:   1
(PID.TID 0000.0001)  missing value: -9.990000000000E+02
(PID.TID 0000.0001)  Levels:    will be set later
(PID.TID 0000.0001)  Fields:    TRAC08
(PID.TID 0000.0001) Creating Output Stream: ZOO1N
(PID.TID 0000.0001) Output Frequency:    2635200.000000 ; Phase:           0.000000
(PID.TID 0000.0001)  Averaging Freq.:    2635200.000000 , Phase:           0.000000 , Cycle:   1
(PID.TID 0000.0001)  missing value: -9.990000000000E+02
(PID.TID 0000.0001)  Levels:    will be set later
(PID.TID 0000.0001)  Fields:    TRAC09
(PID.TID 0000.0001) Creating Output Stream: ZOO1Fe
(PID.TID 0000.0001) Output Frequency:    2635200.000000 ; Phase:           0.000000
(PID.TID 0000.0001)  Averaging Freq.:    2635200.000000 , Phase:           0.000000 , Cycle:   1
(PID.TID 0000.0001)  missing value: -9.990000000000E+02
(PID.TID 0000.0001)  Levels:    will be set later
(PID.TID 0000.0001)  Fields:    TRAC10
(PID.TID 0000.0001) Creating Output Stream: ZOO1Si
(PID.TID 0000.0001) Output Frequency:    2635200.000000 ; Phase:           0.000000
(PID.TID 0000.0001)  Averaging Freq.:    2635200.000000 , Phase:           0.000000 , Cycle:   1
(PID.TID 0000.0001)  missing value: -9.990000000000E+02
(PID.TID 0000.0001)  Levels:    will be set later
(PID.TID 0000.0001)  Fields:    TRAC11
(PID.TID 0000.0001) Creating Output Stream: ZOO2P
(PID.TID 0000.0001) Output Frequency:    2635200.000000 ; Phase:           0.000000
(PID.TID 0000.0001)  Averaging Freq.:    2635200.000000 , Phase:           0.000000 , Cycle:   1
(PID.TID 0000.0001)  missing value: -9.990000000000E+02
(PID.TID 0000.0001)  Levels:    will be set later
(PID.TID 0000.0001)  Fields:    TRAC12
(PID.TID 0000.0001) Creating Output Stream: ZOO2N
(PID.TID 0000.0001) Output Frequency:    2635200.000000 ; Phase:           0.000000
(PID.TID 0000.0001)  Averaging Freq.:    2635200.000000 , Phase:           0.000000 , Cycle:   1
(PID.TID 0000.0001)  missing value: -9.990000000000E+02
(PID.TID 0000.0001)  Levels:    will be set later
(PID.TID 0000.0001)  Fields:    TRAC13
(PID.TID 0000.0001) Creating Output Stream: ZOO2Fe
(PID.TID 0000.0001) Output Frequency:    2635200.000000 ; Phase:           0.000000
(PID.TID 0000.0001)  Averaging Freq.:    2635200.000000 , Phase:           0.000000 , Cycle:   1
(PID.TID 0000.0001)  missing value: -9.990000000000E+02
(PID.TID 0000.0001)  Levels:    will be set later
(PID.TID 0000.0001)  Fields:    TRAC14
(PID.TID 0000.0001) Creating Output Stream: ZOO2Si
(PID.TID 0000.0001) Output Frequency:    2635200.000000 ; Phase:           0.000000
(PID.TID 0000.0001)  Averaging Freq.:    2635200.000000 , Phase:           0.000000 , Cycle:   1
(PID.TID 0000.0001)  missing value: -9.990000000000E+02
(PID.TID 0000.0001)  Levels:    will be set later
(PID.TID 0000.0001)  Fields:    TRAC15
(PID.TID 0000.0001) Creating Output Stream: POP
(PID.TID 0000.0001) Output Frequency:    2635200.000000 ; Phase:           0.000000
(PID.TID 0000.0001)  Averaging Freq.:    2635200.000000 , Phase:           0.000000 , Cycle:   1
(PID.TID 0000.0001)  missing value: -9.990000000000E+02
(PID.TID 0000.0001)  Levels:    will be set later
(PID.TID 0000.0001)  Fields:    TRAC16
(PID.TID 0000.0001) Creating Output Stream: PON
(PID.TID 0000.0001) Output Frequency:    2635200.000000 ; Phase:           0.000000
(PID.TID 0000.0001)  Averaging Freq.:    2635200.000000 , Phase:           0.000000 , Cycle:   1
(PID.TID 0000.0001)  missing value: -9.990000000000E+02
(PID.TID 0000.0001)  Levels:    will be set later
(PID.TID 0000.0001)  Fields:    TRAC17
(PID.TID 0000.0001) Creating Output Stream: POFe
(PID.TID 0000.0001) Output Frequency:    2635200.000000 ; Phase:           0.000000
(PID.TID 0000.0001)  Averaging Freq.:    2635200.000000 , Phase:           0.000000 , Cycle:   1
(PID.TID 0000.0001)  missing value: -9.990000000000E+02
(PID.TID 0000.0001)  Levels:    will be set later
(PID.TID 0000.0001)  Fields:    TRAC18
(PID.TID 0000.0001) Creating Output Stream: POSi
(PID.TID 0000.0001) Output Frequency:    2635200.000000 ; Phase:           0.000000
(PID.TID 0000.0001)  Averaging Freq.:    2635200.000000 , Phase:           0.000000 , Cycle:   1
(PID.TID 0000.0001)  missing value: -9.990000000000E+02
(PID.TID 0000.0001)  Levels:    will be set later
(PID.TID 0000.0001)  Fields:    TRAC19
(PID.TID 0000.0001) Creating Output Stream: NH4
(PID.TID 0000.0001) Output Frequency:    2635200.000000 ; Phase:           0.000000
(PID.TID 0000.0001)  Averaging Freq.:    2635200.000000 , Phase:           0.000000 , Cycle:   1
(PID.TID 0000.0001)  missing value: -9.990000000000E+02
(PID.TID 0000.0001)  Levels:    will be set later
(PID.TID 0000.0001)  Fields:    TRAC20
(PID.TID 0000.0001) Creating Output Stream: NO2
(PID.TID 0000.0001) Output Frequency:    2635200.000000 ; Phase:           0.000000
(PID.TID 0000.0001)  Averaging Freq.:    2635200.000000 , Phase:           0.000000 , Cycle:   1
(PID.TID 0000.0001)  missing value: -9.990000000000E+02
(PID.TID 0000.0001)  Levels:    will be set later
(PID.TID 0000.0001)  Fields:    TRAC21
(PID.TID 0000.0001) Creating Output Stream: Phy01
(PID.TID 0000.0001) Output Frequency:    2635200.000000 ; Phase:           0.000000
(PID.TID 0000.0001)  Averaging Freq.:    2635200.000000 , Phase:           0.000000 , Cycle:   1
(PID.TID 0000.0001)  missing value: -9.990000000000E+02
(PID.TID 0000.0001)  Levels:    will be set later
(PID.TID 0000.0001)  Fields:    TRAC22
(PID.TID 0000.0001) Creating Output Stream: Phy02
(PID.TID 0000.0001) Output Frequency:    2635200.000000 ; Phase:           0.000000
(PID.TID 0000.0001)  Averaging Freq.:    2635200.000000 , Phase:           0.000000 , Cycle:   1
(PID.TID 0000.0001)  missing value: -9.990000000000E+02
(PID.TID 0000.0001)  Levels:    will be set later
(PID.TID 0000.0001)  Fields:    TRAC23
(PID.TID 0000.0001) Creating Output Stream: Phy03
(PID.TID 0000.0001) Output Frequency:    2635200.000000 ; Phase:           0.000000
(PID.TID 0000.0001)  Averaging Freq.:    2635200.000000 , Phase:           0.000000 , Cycle:   1
(PID.TID 0000.0001)  missing value: -9.990000000000E+02
(PID.TID 0000.0001)  Levels:    will be set later
(PID.TID 0000.0001)  Fields:    TRAC24
(PID.TID 0000.0001) Creating Output Stream: Phy04
(PID.TID 0000.0001) Output Frequency:    2635200.000000 ; Phase:           0.000000
(PID.TID 0000.0001)  Averaging Freq.:    2635200.000000 , Phase:           0.000000 , Cycle:   1
(PID.TID 0000.0001)  missing value: -9.990000000000E+02
(PID.TID 0000.0001)  Levels:    will be set later
(PID.TID 0000.0001)  Fields:    TRAC25
(PID.TID 0000.0001) Creating Output Stream: Phy05
(PID.TID 0000.0001) Output Frequency:    2635200.000000 ; Phase:           0.000000
(PID.TID 0000.0001)  Averaging Freq.:    2635200.000000 , Phase:           0.000000 , Cycle:   1
(PID.TID 0000.0001)  missing value: -9.990000000000E+02
(PID.TID 0000.0001)  Levels:    will be set later
(PID.TID 0000.0001)  Fields:    TRAC26
(PID.TID 0000.0001) Creating Output Stream: DOC
(PID.TID 0000.0001) Output Frequency:    2635200.000000 ; Phase:           0.000000
(PID.TID 0000.0001)  Averaging Freq.:    2635200.000000 , Phase:           0.000000 , Cycle:   1
(PID.TID 0000.0001)  missing value: -9.990000000000E+02
(PID.TID 0000.0001)  Levels:    will be set later
(PID.TID 0000.0001)  Fields:    TRAC33
(PID.TID 0000.0001) Creating Output Stream: POC
(PID.TID 0000.0001) Output Frequency:    2635200.000000 ; Phase:           0.000000
(PID.TID 0000.0001)  Averaging Freq.:    2635200.000000 , Phase:           0.000000 , Cycle:   1
(PID.TID 0000.0001)  missing value: -9.990000000000E+02
(PID.TID 0000.0001)  Levels:    will be set later
(PID.TID 0000.0001)  Fields:    TRAC34
(PID.TID 0000.0001) Creating Output Stream: PIC
(PID.TID 0000.0001) Output Frequency:    2635200.000000 ; Phase:           0.000000
(PID.TID 0000.0001)  Averaging Freq.:    2635200.000000 , Phase:           0.000000 , Cycle:   1
(PID.TID 0000.0001)  missing value: -9.990000000000E+02
(PID.TID 0000.0001)  Levels:    will be set later
(PID.TID 0000.0001)  Fields:    TRAC35
(PID.TID 0000.0001) Creating Output Stream: ALK
(PID.TID 0000.0001) Output Frequency:    2635200.000000 ; Phase:           0.000000
(PID.TID 0000.0001)  Averaging Freq.:    2635200.000000 , Phase:           0.000000 , Cycle:   1
(PID.TID 0000.0001)  missing value: -9.990000000000E+02
(PID.TID 0000.0001)  Levels:    will be set later
(PID.TID 0000.0001)  Fields:    TRAC36
(PID.TID 0000.0001) Creating Output Stream: O2
(PID.TID 0000.0001) Output Frequency:    2635200.000000 ; Phase:           0.000000
(PID.TID 0000.0001)  Averaging Freq.:    2635200.000000 , Phase:           0.000000 , Cycle:   1
(PID.TID 0000.0001)  missing value: -9.990000000000E+02
(PID.TID 0000.0001)  Levels:    will be set later
(PID.TID 0000.0001)  Fields:    TRAC37
(PID.TID 0000.0001) Creating Output Stream: ZOOC1
(PID.TID 0000.0001) Output Frequency:    2635200.000000 ; Phase:           0.000000
(PID.TID 0000.0001)  Averaging Freq.:    2635200.000000 , Phase:           0.000000 , Cycle:   1
(PID.TID 0000.0001)  missing value: -9.990000000000E+02
(PID.TID 0000.0001)  Levels:    will be set later
(PID.TID 0000.0001)  Fields:    TRAC38
(PID.TID 0000.0001) Creating Output Stream: ZOOC2
(PID.TID 0000.0001) Output Frequency:    2635200.000000 ; Phase:           0.000000
(PID.TID 0000.0001)  Averaging Freq.:    2635200.000000 , Phase:           0.000000 , Cycle:   1
(PID.TID 0000.0001)  missing value: -9.990000000000E+02
(PID.TID 0000.0001)  Levels:    will be set later
(PID.TID 0000.0001)  Fields:    TRAC39
(PID.TID 0000.0001) Creating Output Stream: CHL1
(PID.TID 0000.0001) Output Frequency:    2635200.000000 ; Phase:           0.000000
(PID.TID 0000.0001)  Averaging Freq.:    2635200.000000 , Phase:           0.000000 , Cycle:   1
(PID.TID 0000.0001)  missing value: -9.990000000000E+02
(PID.TID 0000.0001)  Levels:    will be set later
(PID.TID 0000.0001)  Fields:    TRAC27
(PID.TID 0000.0001) Creating Output Stream: CHL2
(PID.TID 0000.0001) Output Frequency:    2635200.000000 ; Phase:           0.000000
(PID.TID 0000.0001)  Averaging Freq.:    2635200.000000 , Phase:           0.000000 , Cycle:   1
(PID.TID 0000.0001)  missing value: -9.990000000000E+02
(PID.TID 0000.0001)  Levels:    will be set later
(PID.TID 0000.0001)  Fields:    TRAC28
(PID.TID 0000.0001) Creating Output Stream: CHL3
(PID.TID 0000.0001) Output Frequency:    2635200.000000 ; Phase:           0.000000
(PID.TID 0000.0001)  Averaging Freq.:    2635200.000000 , Phase:           0.000000 , Cycle:   1
(PID.TID 0000.0001)  missing value: -9.990000000000E+02
(PID.TID 0000.0001)  Levels:    will be set later
(PID.TID 0000.0001)  Fields:    TRAC29
(PID.TID 0000.0001) Creating Output Stream: CHL4
(PID.TID 0000.0001) Output Frequency:    2635200.000000 ; Phase:           0.000000
(PID.TID 0000.0001)  Averaging Freq.:    2635200.000000 , Phase:           0.000000 , Cycle:   1
(PID.TID 0000.0001)  missing value: -9.990000000000E+02
(PID.TID 0000.0001)  Levels:    will be set later
(PID.TID 0000.0001)  Fields:    TRAC30
(PID.TID 0000.0001) Creating Output Stream: CHL5
(PID.TID 0000.0001) Output Frequency:    2635200.000000 ; Phase:           0.000000
(PID.TID 0000.0001)  Averaging Freq.:    2635200.000000 , Phase:           0.000000 , Cycle:   1
(PID.TID 0000.0001)  missing value: -9.990000000000E+02
(PID.TID 0000.0001)  Levels:    will be set later
(PID.TID 0000.0001)  Fields:    TRAC31
(PID.TID 0000.0001) Creating Output Stream: EXFwspee
(PID.TID 0000.0001) Output Frequency:      86400.000000 ; Phase:           0.000000
(PID.TID 0000.0001)  Averaging Freq.:      86400.000000 , Phase:           0.000000 , Cycle:   1
(PID.TID 0000.0001)  missing value: -9.990000000000E+02
(PID.TID 0000.0001)  Levels:    will be set later
(PID.TID 0000.0001)  Fields:    EXFwspee
(PID.TID 0000.0001) Creating Output Stream: PAR
(PID.TID 0000.0001) Output Frequency:    2635200.000000 ; Phase:           0.000000
(PID.TID 0000.0001)  Averaging Freq.:    2635200.000000 , Phase:           0.000000 , Cycle:   1
(PID.TID 0000.0001)  missing value: -9.990000000000E+02
(PID.TID 0000.0001)  Levels:    will be set later
(PID.TID 0000.0001)  Fields:    PAR
(PID.TID 0000.0001) Creating Output Stream: PP
(PID.TID 0000.0001) Output Frequency:    2635200.000000 ; Phase:           0.000000
(PID.TID 0000.0001)  Averaging Freq.:    2635200.000000 , Phase:           0.000000 , Cycle:   1
[...]
(PID.TID 0000.0001) %MON trcstat_ptracer24_max        =   1.4095593846189E-01
(PID.TID 0000.0001) %MON trcstat_ptracer24_min        =  -2.4559784660510E-02
(PID.TID 0000.0001) %MON trcstat_ptracer24_mean       =   3.2719348519396E-05
(PID.TID 0000.0001) %MON trcstat_ptracer24_sd         =   7.1826348081194E-04
(PID.TID 0000.0001) %MON trcstat_ptracer24_del2       =   1.4964918118946E-05
(PID.TID 0000.0001) %MON trcstat_ptracer25_max        =   2.1972349535563E-03
(PID.TID 0000.0001) %MON trcstat_ptracer25_min        =  -7.3715690757733E-04
(PID.TID 0000.0001) %MON trcstat_ptracer25_mean       =   1.2600420109289E-07
(PID.TID 0000.0001) %MON trcstat_ptracer25_sd         =   1.4871147090053E-05
(PID.TID 0000.0001) %MON trcstat_ptracer25_del2       =   1.9732542334511E-07
(PID.TID 0000.0001) %MON trcstat_ptracer26_max        =   2.6533246114608E-02
(PID.TID 0000.0001) %MON trcstat_ptracer26_min        =  -2.0290469410308E-03
(PID.TID 0000.0001) %MON trcstat_ptracer26_mean       =   6.9712619587009E-05
(PID.TID 0000.0001) %MON trcstat_ptracer26_sd         =   7.7035038866093E-04
(PID.TID 0000.0001) %MON trcstat_ptracer26_del2       =   5.2226454277222E-06
(PID.TID 0000.0001) %MON trcstat_ptracer27_max        =   6.3001702841487E+00
(PID.TID 0000.0001) %MON trcstat_ptracer27_min        =  -3.0433284872634E+00
(PID.TID 0000.0001) %MON trcstat_ptracer27_mean       =   1.4952511522794E-03
(PID.TID 0000.0001) %MON trcstat_ptracer27_sd         =   4.9485996759987E-02
(PID.TID 0000.0001) %MON trcstat_ptracer27_del2       =   1.2765341166459E-03
(PID.TID 0000.0001) %MON trcstat_ptracer28_max        =   3.3699861884580E+00
(PID.TID 0000.0001) %MON trcstat_ptracer28_min        =  -1.7881915258831E+00
(PID.TID 0000.0001) %MON trcstat_ptracer28_mean       =   7.3222662305182E-04
(PID.TID 0000.0001) %MON trcstat_ptracer28_sd         =   2.0311890894944E-02
(PID.TID 0000.0001) %MON trcstat_ptracer28_del2       =   6.0196906117417E-04
(PID.TID 0000.0001) %MON trcstat_ptracer29_max        =   9.0289691751553E-01
(PID.TID 0000.0001) %MON trcstat_ptracer29_min        =  -5.8943483172933E-01
(PID.TID 0000.0001) %MON trcstat_ptracer29_mean       =   1.8337861612632E-04
(PID.TID 0000.0001) %MON trcstat_ptracer29_sd         =   5.1931730587393E-03
(PID.TID 0000.0001) %MON trcstat_ptracer29_del2       =   1.2774422794032E-04
(PID.TID 0000.0001) %MON trcstat_ptracer30_max        =   7.0499738222248E-03
(PID.TID 0000.0001) %MON trcstat_ptracer30_min        =  -1.7709516533769E-02
(PID.TID 0000.0001) %MON trcstat_ptracer30_mean       =  -2.9202886963671E-07
(PID.TID 0000.0001) %MON trcstat_ptracer30_sd         =   9.2994000667709E-05
(PID.TID 0000.0001) %MON trcstat_ptracer30_del2       =   1.4280870336606E-06
(PID.TID 0000.0001) %MON trcstat_ptracer31_max        =   3.8633037112887E-01
(PID.TID 0000.0001) %MON trcstat_ptracer31_min        =  -4.8689077111712E-02
(PID.TID 0000.0001) %MON trcstat_ptracer31_mean       =   6.8345779000436E-04
(PID.TID 0000.0001) %MON trcstat_ptracer31_sd         =   8.4332126495143E-03
(PID.TID 0000.0001) %MON trcstat_ptracer31_del2       =   7.2008213695133E-05
(PID.TID 0000.0001) %MON trcstat_ptracer32_max        =   2.5072721592189E+03
(PID.TID 0000.0001) %MON trcstat_ptracer32_min        =   1.5727858579064E+03
(PID.TID 0000.0001) %MON trcstat_ptracer32_mean       =   2.3412046161961E+03
(PID.TID 0000.0001) %MON trcstat_ptracer32_sd         =   7.0733825137788E+01
(PID.TID 0000.0001) %MON trcstat_ptracer32_del2       =   8.5672182939295E-02
(PID.TID 0000.0001) %MON trcstat_ptracer33_max        =   1.0077907509176E+02
(PID.TID 0000.0001) %MON trcstat_ptracer33_min        =  -4.4746973085367E+00
(PID.TID 0000.0001) %MON trcstat_ptracer33_mean       =   4.9144560010655E-01
(PID.TID 0000.0001) %MON trcstat_ptracer33_sd         =   3.4589920204253E+00
(PID.TID 0000.0001) %MON trcstat_ptracer33_del2       =   1.9133439154412E-02
(PID.TID 0000.0001) %MON trcstat_ptracer34_max        =   2.9521198221983E+01
(PID.TID 0000.0001) %MON trcstat_ptracer34_min        =  -6.1962725266975E-01
(PID.TID 0000.0001) %MON trcstat_ptracer34_mean       =   1.8753095397808E-01
(PID.TID 0000.0001) %MON trcstat_ptracer34_sd         =   3.2779920140239E-01
(PID.TID 0000.0001) %MON trcstat_ptracer34_del2       =   3.0925971395937E-03
(PID.TID 0000.0001) %MON trcstat_ptracer35_max        =   4.2997764283142E+00
(PID.TID 0000.0001) %MON trcstat_ptracer35_min        =  -3.1561759554637E-02
(PID.TID 0000.0001) %MON trcstat_ptracer35_mean       =   2.6560629214754E-02
(PID.TID 0000.0001) %MON trcstat_ptracer35_sd         =   5.3481937157792E-02
(PID.TID 0000.0001) %MON trcstat_ptracer35_del2       =   4.4298942683888E-04
(PID.TID 0000.0001) %MON trcstat_ptracer36_max        =   2.7204185670993E+03
(PID.TID 0000.0001) %MON trcstat_ptracer36_min        =   1.6417470278134E+03
(PID.TID 0000.0001) %MON trcstat_ptracer36_mean       =   2.4566184215163E+03
(PID.TID 0000.0001) %MON trcstat_ptracer36_sd         =   5.3614406811824E+01
(PID.TID 0000.0001) %MON trcstat_ptracer36_del2       =   6.5429278021714E-02
(PID.TID 0000.0001) %MON trcstat_ptracer37_max        =   4.6465673461279E+02
(PID.TID 0000.0001) %MON trcstat_ptracer37_min        =  -5.3308242728438E+01
(PID.TID 0000.0001) %MON trcstat_ptracer37_mean       =   1.8800517275912E+02
(PID.TID 0000.0001) %MON trcstat_ptracer37_sd         =   5.4472075030982E+01
(PID.TID 0000.0001) %MON trcstat_ptracer37_del2       =   8.8105921271410E-02
(PID.TID 0000.0001) %MON trcstat_ptracer38_max        =   6.6213359713746E+00
(PID.TID 0000.0001) %MON trcstat_ptracer38_min        =  -4.8987002891111E-01
(PID.TID 0000.0001) %MON trcstat_ptracer38_mean       =   4.7042413498401E-03
(PID.TID 0000.0001) %MON trcstat_ptracer38_sd         =   9.4048473057300E-02
(PID.TID 0000.0001) %MON trcstat_ptracer38_del2       =   9.4866807578219E-04
(PID.TID 0000.0001) %MON trcstat_ptracer39_max        =   1.7544042604713E+01
(PID.TID 0000.0001) %MON trcstat_ptracer39_min        =  -1.5132143461223E+00
(PID.TID 0000.0001) %MON trcstat_ptracer39_mean       =   8.4292171783234E-03
(PID.TID 0000.0001) %MON trcstat_ptracer39_sd         =   2.0374579458436E-01
(PID.TID 0000.0001) %MON trcstat_ptracer39_del2       =   2.5332804756320E-03
(PID.TID 0000.0001) // =======================================================
(PID.TID 0000.0001) // End MONITOR ptracers field statistics
(PID.TID 0000.0001) // =======================================================
(PID.TID 0000.0001) %CHECKPOINT         4 ckptA
(PID.TID 0000.0001)   Seconds in section "ALL                    [THE_MODEL_MAIN]":
(PID.TID 0000.0001)           User time:   16.449208731180988
(PID.TID 0000.0001)         System time:  0.36836900445632637
(PID.TID 0000.0001)     Wall clock time:   16.955653905868530
(PID.TID 0000.0001)          No. starts:           1
(PID.TID 0000.0001)           No. stops:           1
(PID.TID 0000.0001)   Seconds in section "INITIALISE_FIXED       [THE_MODEL_MAIN]":
(PID.TID 0000.0001)           User time:  0.46695599472150207
(PID.TID 0000.0001)         System time:   4.1937000816687942E-002
(PID.TID 0000.0001)     Wall clock time:  0.52343392372131348
(PID.TID 0000.0001)          No. starts:           1
(PID.TID 0000.0001)           No. stops:           1
(PID.TID 0000.0001)   Seconds in section "THE_MAIN_LOOP          [THE_MODEL_MAIN]":
(PID.TID 0000.0001)           User time:   15.982229918241501
(PID.TID 0000.0001)         System time:  0.32642700523138046
(PID.TID 0000.0001)     Wall clock time:   16.432199001312256
(PID.TID 0000.0001)          No. starts:           1
(PID.TID 0000.0001)           No. stops:           1
(PID.TID 0000.0001)   Seconds in section "INITIALISE_VARIA    [THE_MAIN_LOOP]":
(PID.TID 0000.0001)           User time:  0.64302003383636475
(PID.TID 0000.0001)         System time:  0.10283299535512924
(PID.TID 0000.0001)     Wall clock time:  0.76125192642211914
(PID.TID 0000.0001)          No. starts:           1
(PID.TID 0000.0001)           No. stops:           1
(PID.TID 0000.0001)   Seconds in section "MAIN LOOP           [THE_MAIN_LOOP]":
(PID.TID 0000.0001)           User time:   15.339195132255554
(PID.TID 0000.0001)         System time:  0.22359199821949005
(PID.TID 0000.0001)     Wall clock time:   15.670932054519653
(PID.TID 0000.0001)          No. starts:           1
(PID.TID 0000.0001)           No. stops:           1
(PID.TID 0000.0001)   Seconds in section "MAIN_DO_LOOP        [THE_MAIN_LOOP]":
(PID.TID 0000.0001)           User time:   15.339177727699280
(PID.TID 0000.0001)         System time:  0.22359099984169006
(PID.TID 0000.0001)     Wall clock time:   15.670912981033325
(PID.TID 0000.0001)          No. starts:           4
(PID.TID 0000.0001)           No. stops:           4
(PID.TID 0000.0001)   Seconds in section "FORWARD_STEP        [MAIN_DO_LOOP]":
(PID.TID 0000.0001)           User time:   15.339144706726074
(PID.TID 0000.0001)         System time:  0.22359099984169006
(PID.TID 0000.0001)     Wall clock time:   15.670878887176514
(PID.TID 0000.0001)          No. starts:           4
(PID.TID 0000.0001)           No. stops:           4
(PID.TID 0000.0001)   Seconds in section "DO_STATEVARS_DIAGS  [FORWARD_STEP]":
(PID.TID 0000.0001)           User time:  0.10914266109466553
(PID.TID 0000.0001)         System time:   8.4398686885833740E-004
(PID.TID 0000.0001)     Wall clock time:  0.11047244071960449
(PID.TID 0000.0001)          No. starts:          12
(PID.TID 0000.0001)           No. stops:          12
(PID.TID 0000.0001)   Seconds in section "LOAD_FIELDS_DRIVER  [FORWARD_STEP]":
(PID.TID 0000.0001)           User time:  0.10351872444152832
(PID.TID 0000.0001)         System time:   4.5629888772964478E-003
(PID.TID 0000.0001)     Wall clock time:  0.10854196548461914
(PID.TID 0000.0001)          No. starts:           4
(PID.TID 0000.0001)           No. stops:           4
(PID.TID 0000.0001)   Seconds in section "EXF_GETFORCING     [LOAD_FLDS_DRIVER]":
(PID.TID 0000.0001)           User time:   8.1669926643371582E-002
(PID.TID 0000.0001)         System time:   3.9370059967041016E-003
(PID.TID 0000.0001)     Wall clock time:   8.5974931716918945E-002
(PID.TID 0000.0001)          No. starts:           4
(PID.TID 0000.0001)           No. stops:           4
(PID.TID 0000.0001)   Seconds in section "EXTERNAL_FLDS_LOAD [LOAD_FLDS_DRIVER]":
(PID.TID 0000.0001)           User time:   3.9887428283691406E-004
(PID.TID 0000.0001)         System time:   6.9886445999145508E-006
(PID.TID 0000.0001)     Wall clock time:   4.0578842163085938E-004
(PID.TID 0000.0001)          No. starts:           4
(PID.TID 0000.0001)           No. stops:           4
(PID.TID 0000.0001)   Seconds in section "DO_ATMOSPHERIC_PHYS [FORWARD_STEP]":
(PID.TID 0000.0001)           User time:   2.0861625671386719E-005
(PID.TID 0000.0001)         System time:   9.0152025222778320E-006
(PID.TID 0000.0001)     Wall clock time:   2.5987625122070312E-005
(PID.TID 0000.0001)          No. starts:           4
(PID.TID 0000.0001)           No. stops:           4
(PID.TID 0000.0001)   Seconds in section "DO_OCEANIC_PHYS     [FORWARD_STEP]":
(PID.TID 0000.0001)           User time:  0.74922835826873779
(PID.TID 0000.0001)         System time:   1.2045994400978088E-002
(PID.TID 0000.0001)     Wall clock time:  0.76520681381225586
(PID.TID 0000.0001)          No. starts:           4
(PID.TID 0000.0001)           No. stops:           4
(PID.TID 0000.0001)   Seconds in section "SEAICE_MODEL    [DO_OCEANIC_PHYS]":
(PID.TID 0000.0001)           User time:  0.34012973308563232
(PID.TID 0000.0001)         System time:   4.3459981679916382E-003
(PID.TID 0000.0001)     Wall clock time:  0.34602713584899902
(PID.TID 0000.0001)          No. starts:           4
(PID.TID 0000.0001)           No. stops:           4
(PID.TID 0000.0001)   Seconds in section "SEAICE_DYNSOLVER   [SEAICE_MODEL]":
(PID.TID 0000.0001)           User time:  0.30223643779754639
(PID.TID 0000.0001)         System time:   2.6829987764358521E-003
(PID.TID 0000.0001)     Wall clock time:  0.30633902549743652
(PID.TID 0000.0001)          No. starts:           4
(PID.TID 0000.0001)           No. stops:           4
(PID.TID 0000.0001)   Seconds in section "GGL90_CALC [DO_OCEANIC_PHYS]":
(PID.TID 0000.0001)           User time:  0.19857120513916016
(PID.TID 0000.0001)         System time:   5.0499886274337769E-003
(PID.TID 0000.0001)     Wall clock time:  0.20484805107116699
(PID.TID 0000.0001)          No. starts:           4
(PID.TID 0000.0001)           No. stops:           4
(PID.TID 0000.0001)   Seconds in section "GCHEM_CALC_TENDENCY [FORWARD_STEP]":
(PID.TID 0000.0001)           User time:   1.5854835510253906E-005
(PID.TID 0000.0001)         System time:   0.0000000000000000
(PID.TID 0000.0001)     Wall clock time:   1.5258789062500000E-005
(PID.TID 0000.0001)          No. starts:           4
(PID.TID 0000.0001)           No. stops:           4
(PID.TID 0000.0001)   Seconds in section "DYNAMICS            [FORWARD_STEP]":
(PID.TID 0000.0001)           User time:  0.78884446620941162
(PID.TID 0000.0001)         System time:   9.4460099935531616E-003
(PID.TID 0000.0001)     Wall clock time:  0.80291056632995605
(PID.TID 0000.0001)          No. starts:           4
(PID.TID 0000.0001)           No. stops:           4
(PID.TID 0000.0001)   Seconds in section "UPDATE_R_STAR       [FORWARD_STEP]":
(PID.TID 0000.0001)           User time:   1.7181277275085449E-002
(PID.TID 0000.0001)         System time:   1.2400746345520020E-004
(PID.TID 0000.0001)     Wall clock time:   1.7530202865600586E-002
(PID.TID 0000.0001)          No. starts:           4
(PID.TID 0000.0001)           No. stops:           4
(PID.TID 0000.0001)   Seconds in section "UPDATE_CG2D         [FORWARD_STEP]":
(PID.TID 0000.0001)           User time:   9.7572803497314453E-003
(PID.TID 0000.0001)         System time:   1.0600686073303223E-004
(PID.TID 0000.0001)     Wall clock time:   9.9027156829833984E-003
(PID.TID 0000.0001)          No. starts:           4
(PID.TID 0000.0001)           No. stops:           4
(PID.TID 0000.0001)   Seconds in section "SOLVE_FOR_PRESSURE  [FORWARD_STEP]":
(PID.TID 0000.0001)           User time:   5.0348401069641113E-002
(PID.TID 0000.0001)         System time:   5.1702558994293213E-004
(PID.TID 0000.0001)     Wall clock time:   5.1155805587768555E-002
(PID.TID 0000.0001)          No. starts:           4
(PID.TID 0000.0001)           No. stops:           4
(PID.TID 0000.0001)   Seconds in section "MOM_CORRECTION_STEP [FORWARD_STEP]":
(PID.TID 0000.0001)           User time:   1.4972209930419922E-002
(PID.TID 0000.0001)         System time:   1.6200542449951172E-004
(PID.TID 0000.0001)     Wall clock time:   1.5176057815551758E-002
(PID.TID 0000.0001)          No. starts:           4
(PID.TID 0000.0001)           No. stops:           4
(PID.TID 0000.0001)   Seconds in section "INTEGR_CONTINUITY   [FORWARD_STEP]":
(PID.TID 0000.0001)           User time:   3.3166527748107910E-002
(PID.TID 0000.0001)         System time:   1.1804699897766113E-004
(PID.TID 0000.0001)     Wall clock time:   3.3477067947387695E-002
(PID.TID 0000.0001)          No. starts:           4
(PID.TID 0000.0001)           No. stops:           4
(PID.TID 0000.0001)   Seconds in section "CALC_R_STAR         [FORWARD_STEP]":
(PID.TID 0000.0001)           User time:   3.2433271408081055E-003
(PID.TID 0000.0001)         System time:   2.8014183044433594E-005
(PID.TID 0000.0001)     Wall clock time:   3.3266544342041016E-003
(PID.TID 0000.0001)          No. starts:           4
(PID.TID 0000.0001)           No. stops:           4
(PID.TID 0000.0001)   Seconds in section "BLOCKING_EXCHANGES  [FORWARD_STEP]":
(PID.TID 0000.0001)           User time:   5.7838320732116699E-002
(PID.TID 0000.0001)         System time:   4.4299662113189697E-004
(PID.TID 0000.0001)     Wall clock time:   5.8697938919067383E-002
(PID.TID 0000.0001)          No. starts:           8
(PID.TID 0000.0001)           No. stops:           8
(PID.TID 0000.0001)   Seconds in section "THERMODYNAMICS      [FORWARD_STEP]":
(PID.TID 0000.0001)           User time:   11.867237687110901
(PID.TID 0000.0001)         System time:   8.2072004675865173E-002
(PID.TID 0000.0001)     Wall clock time:   12.030798912048340
(PID.TID 0000.0001)          No. starts:           4
(PID.TID 0000.0001)           No. stops:           4
(PID.TID 0000.0001)   Seconds in section "TRC_CORRECTION_STEP [FORWARD_STEP]":
(PID.TID 0000.0001)           User time:   1.5735626220703125E-005
(PID.TID 0000.0001)         System time:   9.9837779998779297E-007
(PID.TID 0000.0001)     Wall clock time:   1.7166137695312500E-005
(PID.TID 0000.0001)          No. starts:           4
(PID.TID 0000.0001)           No. stops:           4
(PID.TID 0000.0001)   Seconds in section "GCHEM_FORCING_SEP  [FORWARD_STEP]":
(PID.TID 0000.0001)           User time:  0.64171028137207031
(PID.TID 0000.0001)         System time:   5.9510171413421631E-003
(PID.TID 0000.0001)     Wall clock time:  0.65310382843017578
(PID.TID 0000.0001)          No. starts:           4
(PID.TID 0000.0001)           No. stops:           4
(PID.TID 0000.0001)   Seconds in section "MONITOR             [FORWARD_STEP]":
(PID.TID 0000.0001)           User time:  0.14717817306518555
(PID.TID 0000.0001)         System time:   1.2759864330291748E-003
(PID.TID 0000.0001)     Wall clock time:  0.14970970153808594
(PID.TID 0000.0001)          No. starts:           4
(PID.TID 0000.0001)           No. stops:           4
(PID.TID 0000.0001)   Seconds in section "DO_THE_MODEL_IO     [FORWARD_STEP]":
(PID.TID 0000.0001)           User time:  0.57056951522827148
(PID.TID 0000.0001)         System time:   5.4029822349548340E-003
(PID.TID 0000.0001)     Wall clock time:  0.57938694953918457
(PID.TID 0000.0001)          No. starts:           4
(PID.TID 0000.0001)           No. stops:           4
(PID.TID 0000.0001)   Seconds in section "PTRACERS_RESET      [FORWARD_STEP]":
(PID.TID 0000.0001)           User time:   1.9550323486328125E-005
(PID.TID 0000.0001)         System time:   1.0132789611816406E-006
(PID.TID 0000.0001)     Wall clock time:   1.7881393432617188E-005
(PID.TID 0000.0001)          No. starts:           4
(PID.TID 0000.0001)           No. stops:           4
(PID.TID 0000.0001)   Seconds in section "DO_WRITE_PICKUP     [FORWARD_STEP]":
(PID.TID 0000.0001)           User time:  0.17469406127929688
(PID.TID 0000.0001)         System time:  0.10034202039241791
(PID.TID 0000.0001)     Wall clock time:  0.28094196319580078
(PID.TID 0000.0001)          No. starts:           4
(PID.TID 0000.0001)           No. stops:           4
(PID.TID 0000.0001) // ======================================================
(PID.TID 0000.0001) // Tile <-> Tile communication statistics
(PID.TID 0000.0001) // ======================================================
(PID.TID 0000.0001) // o Tile number: 000001
(PID.TID 0000.0001) //         No. X exchanges =              0
(PID.TID 0000.0001) //            Max. X spins =              0
(PID.TID 0000.0001) //            Min. X spins =     1000000000
(PID.TID 0000.0001) //          Total. X spins =              0
(PID.TID 0000.0001) //            Avg. X spins =       0.00E+00
(PID.TID 0000.0001) //         No. Y exchanges =              0
(PID.TID 0000.0001) //            Max. Y spins =              0
(PID.TID 0000.0001) //            Min. Y spins =     1000000000
(PID.TID 0000.0001) //          Total. Y spins =              0
(PID.TID 0000.0001) //            Avg. Y spins =       0.00E+00
(PID.TID 0000.0001) // o Thread number: 000001
(PID.TID 0000.0001) //            No. barriers =           9192
(PID.TID 0000.0001) //      Max. barrier spins =              1
(PID.TID 0000.0001) //      Min. barrier spins =              1
(PID.TID 0000.0001) //     Total barrier spins =           9192
(PID.TID 0000.0001) //      Avg. barrier spins =       1.00E+00
PROGRAM MAIN: Execution ended Normally
