(PID.TID 0000.0001) 
(PID.TID 0000.0001) // ======================================================
(PID.TID 0000.0001) //                      MITgcm UV
(PID.TID 0000.0001) //                      =========
(PID.TID 0000.0001) // ======================================================
(PID.TID 0000.0001) // execution environment starting up...
(PID.TID 0000.0001) 
(PID.TID 0000.0001) // MITgcmUV version:  checkpoint66l
(PID.TID 0000.0001) // Build user:        dmenemen
(PID.TID 0000.0001) // Build host:        r11i2n12
(PID.TID 0000.0001) // Build date:        Fri Mar  6 17:47:57 PST 2020
(PID.TID 0000.0001) 
(PID.TID 0000.0001) // =======================================================
(PID.TID 0000.0001) // Execution Environment parameter file "eedata"
(PID.TID 0000.0001) // =======================================================
(PID.TID 0000.0001) ># Example "eedata" file
(PID.TID 0000.0001) ># Lines beginning "#" are comments
(PID.TID 0000.0001) ># nTx - No. threads per process in X
(PID.TID 0000.0001) ># nTy - No. threads per process in Y
(PID.TID 0000.0001) > &EEPARMS
(PID.TID 0000.0001) > useCubedSphereExchange=.TRUE.,
(PID.TID 0000.0001) > nTx=1,
(PID.TID 0000.0001) > nTy=1,
(PID.TID 0000.0001) > /
(PID.TID 0000.0001) ># Note: Some systems use & as the
(PID.TID 0000.0001) ># namelist terminator. Other systems
(PID.TID 0000.0001) ># use a / character (as shown here).
(PID.TID 0000.0001) 
(PID.TID 0000.0001) // =======================================================
(PID.TID 0000.0001) // Computational Grid Specification ( see files "SIZE.h" )
(PID.TID 0000.0001) //                                  ( and "eedata"       )
(PID.TID 0000.0001) // =======================================================
(PID.TID 0000.0001)      nPx =  767 ; /* No. processes in X */
(PID.TID 0000.0001)      nPy =    1 ; /* No. processes in Y */
(PID.TID 0000.0001)      nSx =    1 ; /* No. tiles in X per process */
(PID.TID 0000.0001)      nSy =    1 ; /* No. tiles in Y per process */
(PID.TID 0000.0001)      sNx =   30 ; /* Tile size in X */
(PID.TID 0000.0001)      sNy =   30 ; /* Tile size in Y */
(PID.TID 0000.0001)      OLx =    4 ; /* Tile overlap distance in X */
(PID.TID 0000.0001)      OLy =    4 ; /* Tile overlap distance in Y */
(PID.TID 0000.0001)      nTx =    1 ; /* No. threads in X per process */
(PID.TID 0000.0001)      nTy =    1 ; /* No. threads in Y per process */
(PID.TID 0000.0001)       Nr =   50 ; /* No. levels in the vertical   */
(PID.TID 0000.0001)       Nx =23010 ; /* Total domain size in X ( = nPx*nSx*sNx ) */
(PID.TID 0000.0001)       Ny =   30 ; /* Total domain size in Y ( = nPy*nSy*sNy ) */
(PID.TID 0000.0001)   nTiles =    1 ; /* Total no. tiles per process ( = nSx*nSy ) */
(PID.TID 0000.0001)   nProcs =  767 ; /* Total no. processes ( = nPx*nPy ) */
(PID.TID 0000.0001) nThreads =    1 ; /* Total no. threads per process ( = nTx*nTy ) */
(PID.TID 0000.0001) usingMPI =    T ; /* Flag used to control whether MPI is in use */
(PID.TID 0000.0001)                   /*  note: To execute a program with MPI calls */
(PID.TID 0000.0001)                   /*  it must be launched appropriately e.g     */
(PID.TID 0000.0001)                   /*  "mpirun -np 64 ......"                    */
(PID.TID 0000.0001) useCoupler=    F ;/* Flag used to control communications with   */
(PID.TID 0000.0001)                   /*  other model components, through a coupler */
(PID.TID 0000.0001) debugMode =    F ; /* print debug msg. (sequence of S/R calls)  */
(PID.TID 0000.0001) printMapIncludesZeros=    F ; /* print zeros in Std.Output maps */
(PID.TID 0000.0001) maxLengthPrt1D=   65 /* maxLength of 1D array printed to StdOut */
(PID.TID 0000.0001) 
(PID.TID 0000.0001) ======= Starting MPI parallel Run =========
(PID.TID 0000.0001)  My Processor Name (len:  8 ) = r11i2n12
(PID.TID 0000.0001)  Located at (  0,  0) on processor grid (0:766,0:  0)
(PID.TID 0000.0001)  Origin at  (     1,     1) on global grid (1: 23010,1:    30)
(PID.TID 0000.0001)  North neighbor = processor 0000
(PID.TID 0000.0001)  South neighbor = processor 0000
(PID.TID 0000.0001)   East neighbor = processor 0001
(PID.TID 0000.0001)   West neighbor = processor 0766
(PID.TID 0000.0001) // ======================================================
(PID.TID 0000.0001) // Mapping of tiles to threads
(PID.TID 0000.0001) // ======================================================
(PID.TID 0000.0001) // -o- Thread   1, tiles (   1:   1,   1:   1)
(PID.TID 0000.0001) 
(PID.TID 0000.0001) W2_READPARMS: opening data.exch2
(PID.TID 0000.0001)  OPEN_COPY_DATA_FILE: opening file data.exch2
(PID.TID 0000.0001) // =======================================================
(PID.TID 0000.0001) // Parameter file "data.exch2"
(PID.TID 0000.0001) // =======================================================
(PID.TID 0000.0001) ># EXCH2 Package: Wrapper-2 User Choice
(PID.TID 0000.0001) >#--------------------
(PID.TID 0000.0001) >#  preDefTopol   :: pre-defined Topology selector:
(PID.TID 0000.0001) >#                :: = 0 : topology defined from processing "data.exch2";
(PID.TID 0000.0001) >#                :: = 1 : simple, single facet topology;
(PID.TID 0000.0001) >#                :: = 2 : customized topology (w2_set_myown_facets)
(PID.TID 0000.0001) >#                :: = 3 : 6-facet Cube (3 face-dims: nRed, nGreen, nBlue).
(PID.TID 0000.0001) >#  dimsFacets    :: facet pair of dimensions (n1x,n1y, n2x,n2y ...)
(PID.TID 0000.0001) >#  facetEdgeLink :: Face-Edge connectivity map:
(PID.TID 0000.0001) >#    facetEdgeLink(i,j)=XX.1 : face(j)-edge(i) (i=1,2,3,4 <==> N,S,E,W)
(PID.TID 0000.0001) >#    is connected to Northern edge of face "XX" ; similarly,
(PID.TID 0000.0001) >#    = XX.2 : to Southern.E, XX.3 = Eastern.E, XX.4 = Western.E of face "XX"
(PID.TID 0000.0001) >#  blankList     :: List of "blank" tiles
(PID.TID 0000.0001) >#  W2_mapIO      :: global map IO selector (-1 = old type ; 0 = 1 long line in X
(PID.TID 0000.0001) >#                :: 1 = compact, mostly in Y dir)
(PID.TID 0000.0001) >#  W2_printMsg   :: option for information messages printing
(PID.TID 0000.0001) >#                :: <0 : write to log file ; =0 : minimum print ;
(PID.TID 0000.0001) >#                :: =1 : no duplicated print ; =2 : all processes do print
(PID.TID 0000.0001) >#--------------------
(PID.TID 0000.0001) > &W2_EXCH2_PARM01
(PID.TID 0000.0001) ># W2_printMsg= 1,
(PID.TID 0000.0001) >  W2_mapIO   = 1,
(PID.TID 0000.0001) >#
(PID.TID 0000.0001) >#-- 5 facets llc_270 topology (drop facet 6 and its connection):
(PID.TID 0000.0001) >  preDefTopol = 0,
(PID.TID 0000.0001) >  dimsFacets = 270, 810, 270, 810, 270, 270, 810, 270, 810, 270, 0, 0,
(PID.TID 0000.0001) >  facetEdgeLink(1,1)= 3.4, 0. , 2.4, 5.1,
(PID.TID 0000.0001) >  facetEdgeLink(1,2)= 3.2, 0. , 4.2, 1.3,
(PID.TID 0000.0001) >  facetEdgeLink(1,3)= 5.4, 2.1, 4.4, 1.1,
(PID.TID 0000.0001) >  facetEdgeLink(1,4)= 5.2, 2.3, 0. , 3.3,
(PID.TID 0000.0001) >  facetEdgeLink(1,5)= 1.4, 4.1, 0. , 3.1,
(PID.TID 0000.0001) >#
(PID.TID 0000.0001) >  blankList = 1,
(PID.TID 0000.0001) >  2,
(PID.TID 0000.0001) >  3,
(PID.TID 0000.0001) >  4,
(PID.TID 0000.0001) >  5,
(PID.TID 0000.0001) >  6,
(PID.TID 0000.0001) >  7,
(PID.TID 0000.0001) >  8,
(PID.TID 0000.0001) >  9,
(PID.TID 0000.0001) >  10,
(PID.TID 0000.0001) >  11,
(PID.TID 0000.0001) >  12,
(PID.TID 0000.0001) >  13,
(PID.TID 0000.0001) >  14,
(PID.TID 0000.0001) >  15,
(PID.TID 0000.0001) >  16,
(PID.TID 0000.0001) >  17,
(PID.TID 0000.0001) >  18,
(PID.TID 0000.0001) >  19,
(PID.TID 0000.0001) >  20,
(PID.TID 0000.0001) >  21,
(PID.TID 0000.0001) >  22,
(PID.TID 0000.0001) >  23,
(PID.TID 0000.0001) >  24,
(PID.TID 0000.0001) >  25,
(PID.TID 0000.0001) >  26,
(PID.TID 0000.0001) >  27,
(PID.TID 0000.0001) >  29,
(PID.TID 0000.0001) >  30,
(PID.TID 0000.0001) >  31,
(PID.TID 0000.0001) >  32,
(PID.TID 0000.0001) >  33,
(PID.TID 0000.0001) >  34,
(PID.TID 0000.0001) >  35,
(PID.TID 0000.0001) >  36,
(PID.TID 0000.0001) >  39,
(PID.TID 0000.0001) >  40,
(PID.TID 0000.0001) >  41,
(PID.TID 0000.0001) >  42,
(PID.TID 0000.0001) >  43,
(PID.TID 0000.0001) >  44,
(PID.TID 0000.0001) >  45,
(PID.TID 0000.0001) >  54,
(PID.TID 0000.0001) >  133,
(PID.TID 0000.0001) >  142,
(PID.TID 0000.0001) >  150,
(PID.TID 0000.0001) >  151,
(PID.TID 0000.0001) >  159,
(PID.TID 0000.0001) >  160,
(PID.TID 0000.0001) >  161,
(PID.TID 0000.0001) >  166,
(PID.TID 0000.0001) >  167,
(PID.TID 0000.0001) >  168,
(PID.TID 0000.0001) >  169,
(PID.TID 0000.0001) >  175,
(PID.TID 0000.0001) >  176,
(PID.TID 0000.0001) >  178,
(PID.TID 0000.0001) >  189,
(PID.TID 0000.0001) >  198,
(PID.TID 0000.0001) >  207,
(PID.TID 0000.0001) >  214,
(PID.TID 0000.0001) >  215,
(PID.TID 0000.0001) >  216,
(PID.TID 0000.0001) >  224,
(PID.TID 0000.0001) >  225,
(PID.TID 0000.0001) >  234,
(PID.TID 0000.0001) >  244,
(PID.TID 0000.0001) >  245,
(PID.TID 0000.0001) >  246,
(PID.TID 0000.0001) >  247,
(PID.TID 0000.0001) >  248,
(PID.TID 0000.0001) >  249,
(PID.TID 0000.0001) >  250,
(PID.TID 0000.0001) >  251,
(PID.TID 0000.0001) >  252,
(PID.TID 0000.0001) >  253,
(PID.TID 0000.0001) >  254,
(PID.TID 0000.0001) >  255,
(PID.TID 0000.0001) >  256,
(PID.TID 0000.0001) >  257,
(PID.TID 0000.0001) >  258,
(PID.TID 0000.0001) >  259,
(PID.TID 0000.0001) >  260,
(PID.TID 0000.0001) >  261,
(PID.TID 0000.0001) >  262,
(PID.TID 0000.0001) >  263,
(PID.TID 0000.0001) >  264,
(PID.TID 0000.0001) >  265,
(PID.TID 0000.0001) >  266,
(PID.TID 0000.0001) >  267,
(PID.TID 0000.0001) >  268,
(PID.TID 0000.0001) >  269,
(PID.TID 0000.0001) >  270,
(PID.TID 0000.0001) >  271,
(PID.TID 0000.0001) >  272,
(PID.TID 0000.0001) >  273,
(PID.TID 0000.0001) >  274,
(PID.TID 0000.0001) >  275,
(PID.TID 0000.0001) >  276,
(PID.TID 0000.0001) >  277,
(PID.TID 0000.0001) >  278,
(PID.TID 0000.0001) >  279,
(PID.TID 0000.0001) >  280,
(PID.TID 0000.0001) >  281,
(PID.TID 0000.0001) >  282,
(PID.TID 0000.0001) >  283,
(PID.TID 0000.0001) >  284,
(PID.TID 0000.0001) >  285,
(PID.TID 0000.0001) >  286,
(PID.TID 0000.0001) >  287,
(PID.TID 0000.0001) >  288,
(PID.TID 0000.0001) >  289,
(PID.TID 0000.0001) >  292,
(PID.TID 0000.0001) >  293,
(PID.TID 0000.0001) >  294,
(PID.TID 0000.0001) >  295,
(PID.TID 0000.0001) >  296,
(PID.TID 0000.0001) >  297,
(PID.TID 0000.0001) >  368,
(PID.TID 0000.0001) >  369,
(PID.TID 0000.0001) >  417,
(PID.TID 0000.0001) >  418,
(PID.TID 0000.0001) >  419,
(PID.TID 0000.0001) >  420,
(PID.TID 0000.0001) >  424,
(PID.TID 0000.0001) >  425,
(PID.TID 0000.0001) >  426,
(PID.TID 0000.0001) >  427,
(PID.TID 0000.0001) >  428,
(PID.TID 0000.0001) >  429,
(PID.TID 0000.0001) >  433,
(PID.TID 0000.0001) >  434,
(PID.TID 0000.0001) >  435,
(PID.TID 0000.0001) >  436,
(PID.TID 0000.0001) >  437,
(PID.TID 0000.0001) >  438,
(PID.TID 0000.0001) >  442,
(PID.TID 0000.0001) >  443,
(PID.TID 0000.0001) >  444,
(PID.TID 0000.0001) >  445,
(PID.TID 0000.0001) >  446,
(PID.TID 0000.0001) >  447,
(PID.TID 0000.0001) >  448,
(PID.TID 0000.0001) >  449,
(PID.TID 0000.0001) >  451,
(PID.TID 0000.0001) >  452,
(PID.TID 0000.0001) >  453,
(PID.TID 0000.0001) >  454,
(PID.TID 0000.0001) >  455,
(PID.TID 0000.0001) >  456,
(PID.TID 0000.0001) >  457,
(PID.TID 0000.0001) >  458,
(PID.TID 0000.0001) >  460,
(PID.TID 0000.0001) >  461,
(PID.TID 0000.0001) >  462,
(PID.TID 0000.0001) >  463,
(PID.TID 0000.0001) >  464,
(PID.TID 0000.0001) >  465,
(PID.TID 0000.0001) >  466,
(PID.TID 0000.0001) >  467,
(PID.TID 0000.0001) >  469,
(PID.TID 0000.0001) >  470,
(PID.TID 0000.0001) >  471,
(PID.TID 0000.0001) >  472,
(PID.TID 0000.0001) >  473,
(PID.TID 0000.0001) >  474,
(PID.TID 0000.0001) >  475,
(PID.TID 0000.0001) >  476,
(PID.TID 0000.0001) >  477,
(PID.TID 0000.0001) >  478,
(PID.TID 0000.0001) >  481,
(PID.TID 0000.0001) >  482,
(PID.TID 0000.0001) >  483,
(PID.TID 0000.0001) >  484,
(PID.TID 0000.0001) >  485,
(PID.TID 0000.0001) >  486,
(PID.TID 0000.0001) >  495,
(PID.TID 0000.0001) >  543,
(PID.TID 0000.0001) >  551,
(PID.TID 0000.0001) >  559,
(PID.TID 0000.0001) >  568,
(PID.TID 0000.0001) >  569,
(PID.TID 0000.0001) >  589,
(PID.TID 0000.0001) >  590,
(PID.TID 0000.0001) >  591,
(PID.TID 0000.0001) >  592,
(PID.TID 0000.0001) >  593,
(PID.TID 0000.0001) >  594,
(PID.TID 0000.0001) >  595,
(PID.TID 0000.0001) >  596,
(PID.TID 0000.0001) >  617,
(PID.TID 0000.0001) >  618,
(PID.TID 0000.0001) >  619,
(PID.TID 0000.0001) >  620,
(PID.TID 0000.0001) >  621,
(PID.TID 0000.0001) >  645,
(PID.TID 0000.0001) >  646,
(PID.TID 0000.0001) >  647,
(PID.TID 0000.0001) >  648,
(PID.TID 0000.0001) >  673,
(PID.TID 0000.0001) >  674,
(PID.TID 0000.0001) >  675,
(PID.TID 0000.0001) >  700,
(PID.TID 0000.0001) >  701,
(PID.TID 0000.0001) >  702,
(PID.TID 0000.0001) >  727,
(PID.TID 0000.0001) >  728,
(PID.TID 0000.0001) >  729,
(PID.TID 0000.0001) >  731,
(PID.TID 0000.0001) >  754,
(PID.TID 0000.0001) >  755,
(PID.TID 0000.0001) >  756,
(PID.TID 0000.0001) >  758,
(PID.TID 0000.0001) >  780,
(PID.TID 0000.0001) >  781,
(PID.TID 0000.0001) >  782,
(PID.TID 0000.0001) >  783,
(PID.TID 0000.0001) >  784,
(PID.TID 0000.0001) >  785,
(PID.TID 0000.0001) >  807,
(PID.TID 0000.0001) >  808,
(PID.TID 0000.0001) >  809,
(PID.TID 0000.0001) >  810,
(PID.TID 0000.0001) >  811,
(PID.TID 0000.0001) >  812,
(PID.TID 0000.0001) >  813,
(PID.TID 0000.0001) >  814,
(PID.TID 0000.0001) >  834,
(PID.TID 0000.0001) >  835,
(PID.TID 0000.0001) >  836,
(PID.TID 0000.0001) >  837,
(PID.TID 0000.0001) >  839,
(PID.TID 0000.0001) >  840,
(PID.TID 0000.0001) >  841,
(PID.TID 0000.0001) >  842,
(PID.TID 0000.0001) >  843,
(PID.TID 0000.0001) >  861,
(PID.TID 0000.0001) >  862,
(PID.TID 0000.0001) >  863,
(PID.TID 0000.0001) >  864,
(PID.TID 0000.0001) >  866,
(PID.TID 0000.0001) >  867,
(PID.TID 0000.0001) >  868,
(PID.TID 0000.0001) >  869,
(PID.TID 0000.0001) >  870,
(PID.TID 0000.0001) >  871,
(PID.TID 0000.0001) >  888,
(PID.TID 0000.0001) >  889,
(PID.TID 0000.0001) >  890,
(PID.TID 0000.0001) >  891,
(PID.TID 0000.0001) >  896,
(PID.TID 0000.0001) >  897,
(PID.TID 0000.0001) >  898,
(PID.TID 0000.0001) >  914,
(PID.TID 0000.0001) >  915,
(PID.TID 0000.0001) >  916,
(PID.TID 0000.0001) >  917,
(PID.TID 0000.0001) >  918,
(PID.TID 0000.0001) >  924,
(PID.TID 0000.0001) >  942,
(PID.TID 0000.0001) >  943,
(PID.TID 0000.0001) >  944,
(PID.TID 0000.0001) >  945,
(PID.TID 0000.0001) >  968,
(PID.TID 0000.0001) >  969,
(PID.TID 0000.0001) >  970,
(PID.TID 0000.0001) >  971,
(PID.TID 0000.0001) >  972,
(PID.TID 0000.0001) >  983,
(PID.TID 0000.0001) >  984,
(PID.TID 0000.0001) >  985,
(PID.TID 0000.0001) >  986,
(PID.TID 0000.0001) >  987,
(PID.TID 0000.0001) >  996,
(PID.TID 0000.0001) >  997,
(PID.TID 0000.0001) >  998,
(PID.TID 0000.0001) >  999,
(PID.TID 0000.0001) >  1011,
(PID.TID 0000.0001) >  1012,
(PID.TID 0000.0001) >  1023,
(PID.TID 0000.0001) >  1024,
(PID.TID 0000.0001) >  1025,
(PID.TID 0000.0001) >  1026,
(PID.TID 0000.0001) >  1051,
(PID.TID 0000.0001) >  1052,
(PID.TID 0000.0001) >  1053,
(PID.TID 0000.0001) > &
(PID.TID 0000.0001) 
(PID.TID 0000.0001) W2_READPARMS: finished reading data.exch2
(PID.TID 0000.0001) W2_useE2ioLayOut=    T ;/* T: use Exch2 glob IO map; F: use model default */
(PID.TID 0000.0001) W2_mapIO        =   1 ; /* select option for Exch2 global-IO map */
(PID.TID 0000.0001) W2_printMsg     =  -1 ; /* select option for printing information */
(PID.TID 0000.0001) ===== Start setting W2 TOPOLOGY:
(PID.TID 0000.0001)  write to log-file: w2_tile_topology.0000.log
(PID.TID 0000.0001) =====       setting W2 TOPOLOGY: Done
(PID.TID 0000.0001) 
(PID.TID 0000.0001)  INI_PARMS: opening model parameter file "data"
(PID.TID 0000.0001)  OPEN_COPY_DATA_FILE: opening file data
(PID.TID 0000.0001) // =======================================================
(PID.TID 0000.0001) // Parameter file "data"
(PID.TID 0000.0001) // =======================================================
(PID.TID 0000.0001) ># ====================
(PID.TID 0000.0001) ># | Model parameters |
(PID.TID 0000.0001) ># ====================
(PID.TID 0000.0001) >#
(PID.TID 0000.0001) ># Continuous equation parameters
(PID.TID 0000.0001) > &PARM01
(PID.TID 0000.0001) > tRef           = 3*23.,3*22.,21.,2*20.,19.,2*18.,17.,2*16.,15.,14.,13.,
(PID.TID 0000.0001) >                  12.,11.,2*9.,8.,7.,2*6.,2*5.,3*4.,3*3.,4*2.,12*1.,
(PID.TID 0000.0001) > sRef           = 50*34.5,
(PID.TID 0000.0001) > no_slip_sides  = .TRUE.,
(PID.TID 0000.0001) > no_slip_bottom = .TRUE.,
(PID.TID 0000.0001) >#
(PID.TID 0000.0001) > viscAr=0.5E-4,
(PID.TID 0000.0001) >#
(PID.TID 0000.0001) > viscAh=1.E0,
(PID.TID 0000.0001) > viscAhGrid=1.E-2,
(PID.TID 0000.0001) >#
(PID.TID 0000.0001) > diffKhS=1.E1,
(PID.TID 0000.0001) > diffKhT=1.E1,
(PID.TID 0000.0001) > diffKrS=1.E-5,
(PID.TID 0000.0001) > diffKrT=1.E-5,
(PID.TID 0000.0001) >#
(PID.TID 0000.0001) > bottomDragQuadratic = 0.001,
(PID.TID 0000.0001) >#when using ggl90
(PID.TID 0000.0001) > ivdc_kappa=10.,
(PID.TID 0000.0001) > implicitDiffusion=.TRUE.,
(PID.TID 0000.0001) > implicitViscosity=.TRUE.,
(PID.TID 0000.0001) > viscC4Leith=1.5,
(PID.TID 0000.0001) > viscC4Leithd=1.5,
(PID.TID 0000.0001) > viscA4GridMax=0.5,
(PID.TID 0000.0001) > useAreaViscLength=.TRUE.,
(PID.TID 0000.0001) > useRealFreshWaterFlux=.TRUE.,
(PID.TID 0000.0001) > balanceSaltClimRelax=.TRUE.,
(PID.TID 0000.0001) > allowFreezing=.FALSE.,
(PID.TID 0000.0001) > hFacMinDr=50.,
(PID.TID 0000.0001) > hFacMin=0.3,
(PID.TID 0000.0001) > hFacInf=0.1,
(PID.TID 0000.0001) > hFacSup=5.,
(PID.TID 0000.0001) > select_rStar=2,
(PID.TID 0000.0001) > nonlinFreeSurf=4,
(PID.TID 0000.0001) > gravity=9.81,
(PID.TID 0000.0001) > rhonil=1029.,
(PID.TID 0000.0001) > rhoConst=1029.,
(PID.TID 0000.0001) > rhoConstFresh=1000.,
(PID.TID 0000.0001) > convertFW2Salt=-1.,
(PID.TID 0000.0001) > eosType='JMD95Z',
(PID.TID 0000.0001) > implicitFreeSurface=.TRUE.,
(PID.TID 0000.0001) > exactConserv=.TRUE.,
(PID.TID 0000.0001) > useSingleCpuIO=.TRUE.,
(PID.TID 0000.0001) > tempAdvScheme=30,
(PID.TID 0000.0001) > saltAdvScheme=30,
(PID.TID 0000.0001) > tempVertAdvScheme=3,
(PID.TID 0000.0001) > saltVertAdvScheme=3,
(PID.TID 0000.0001) > tempImplVertAdv=.TRUE.,
(PID.TID 0000.0001) > saltImplVertAdv=.TRUE.,
(PID.TID 0000.0001) > staggerTimeStep=.TRUE.,
(PID.TID 0000.0001) > vectorInvariantMomentum=.TRUE.,
(PID.TID 0000.0001) >#when using the cd scheme:
(PID.TID 0000.0001) ># useCDscheme=.TRUE.,
(PID.TID 0000.0001) > useJamartWetPoints=.TRUE.,
(PID.TID 0000.0001) > readBinaryPrec=32,
(PID.TID 0000.0001) > writeBinaryPrec=32,
(PID.TID 0000.0001) > debugLevel=1,
(PID.TID 0000.0001) > /
(PID.TID 0000.0001) >
(PID.TID 0000.0001) ># Elliptic solver parameters
(PID.TID 0000.0001) > &PARM02
(PID.TID 0000.0001) > cg2dMaxIters=300,
(PID.TID 0000.0001) > cg2dTargetResWunit=1.E-12,
(PID.TID 0000.0001) > /
(PID.TID 0000.0001) >
(PID.TID 0000.0001) ># Time stepping parameters
(PID.TID 0000.0001) > &PARM03
(PID.TID 0000.0001) > nIter0=1,
(PID.TID 0000.0001) > nTimeSteps=4,
(PID.TID 0000.0001) > forcing_In_AB=.FALSE.,
(PID.TID 0000.0001) > momDissip_In_AB=.FALSE.,
(PID.TID 0000.0001) >#when using the cd scheme:
(PID.TID 0000.0001) ># epsAB_CD = 0.25,
(PID.TID 0000.0001) ># tauCD=172800.0,
(PID.TID 0000.0001) > deltaTmom   =1200.,
(PID.TID 0000.0001) > deltaTtracer=1200.,
(PID.TID 0000.0001) > deltaTfreesurf=1200.,
(PID.TID 0000.0001) > deltaTClock =1200.,
(PID.TID 0000.0001) >#when using ab2:
(PID.TID 0000.0001) ># abEps = 0.1,
(PID.TID 0000.0001) >#when using ab3:
(PID.TID 0000.0001) > doAB_onGtGs=.FALSE.,
(PID.TID 0000.0001) > alph_AB=0.5,
(PID.TID 0000.0001) > beta_AB=0.281105,
(PID.TID 0000.0001) >#
(PID.TID 0000.0001) > pChkptFreq  =31536000.0,
(PID.TID 0000.0001) > chkptFreq   =31536000.0,
(PID.TID 0000.0001) > monitorFreq = 1.0,
(PID.TID 0000.0001) > dumpInitAndLast = .FALSE.,
(PID.TID 0000.0001) > adjDumpFreq = 31536000.0,
(PID.TID 0000.0001) > adjMonitorFreq = 43200.0,
(PID.TID 0000.0001) > pickupStrictlyMatch=.FALSE.,
(PID.TID 0000.0001) > /
(PID.TID 0000.0001) >
(PID.TID 0000.0001) ># Gridding parameters
(PID.TID 0000.0001) > &PARM04
(PID.TID 0000.0001) > usingCurvilinearGrid=.TRUE.,
(PID.TID 0000.0001) > delR =
(PID.TID 0000.0001) >     10.00, 10.00, 10.00, 10.00, 10.00, 10.00, 10.00, 10.01,
(PID.TID 0000.0001) >     10.03, 10.11, 10.32, 10.80, 11.76, 13.42, 16.04, 19.82, 24.85,
(PID.TID 0000.0001) >     31.10, 38.42, 46.50, 55.00, 63.50, 71.58, 78.90, 85.15, 90.18,
(PID.TID 0000.0001) >     93.96, 96.58, 98.25, 99.25,100.01,101.33,104.56,111.33,122.83,
(PID.TID 0000.0001) >     139.09,158.94,180.83,203.55,226.50,249.50,272.50,295.50,318.50,
(PID.TID 0000.0001) >     341.50,364.50,387.50,410.50,433.50,456.50,
(PID.TID 0000.0001) > /
(PID.TID 0000.0001) >
(PID.TID 0000.0001) ># Input datasets
(PID.TID 0000.0001) > &PARM05
(PID.TID 0000.0001) > adTapeDir='tapes',
(PID.TID 0000.0001) > bathyFile      ='bathy270_filled_noCaspian_r4',
(PID.TID 0000.0001) > hydrogThetaFile='T_OWPv1_M_eccollc_90x50.bin',
(PID.TID 0000.0001) > hydrogSaltFile ='S_OWPv1_M_eccollc_90x50.bin',
(PID.TID 0000.0001) > /
(PID.TID 0000.0001) 
(PID.TID 0000.0001)  INI_PARMS ; starts to read PARM01
(PID.TID 0000.0001)  INI_PARMS ; read PARM01 : OK
(PID.TID 0000.0001)  INI_PARMS ; starts to read PARM02
(PID.TID 0000.0001)  INI_PARMS ; read PARM02 : OK
(PID.TID 0000.0001)  INI_PARMS ; starts to read PARM03
(PID.TID 0000.0001)  INI_PARMS ; read PARM03 : OK
(PID.TID 0000.0001)  INI_PARMS ; starts to read PARM04
(PID.TID 0000.0001)  INI_PARMS ; read PARM04 : OK
(PID.TID 0000.0001)  INI_PARMS ; starts to read PARM05
(PID.TID 0000.0001)  INI_PARMS ; read PARM05 : OK
(PID.TID 0000.0001)  INI_PARMS: finished reading file "data"
(PID.TID 0000.0001)  PACKAGES_BOOT: opening data.pkg
(PID.TID 0000.0001)  OPEN_COPY_DATA_FILE: opening file data.pkg
(PID.TID 0000.0001) // =======================================================
(PID.TID 0000.0001) // Parameter file "data.pkg"
(PID.TID 0000.0001) // =======================================================
(PID.TID 0000.0001) ># Packages
(PID.TID 0000.0001) > &PACKAGES
(PID.TID 0000.0001) > useEXF   = .TRUE.,
(PID.TID 0000.0001) > useCAL   = .TRUE.,
(PID.TID 0000.0001) > useGMRedi= .TRUE.,
(PID.TID 0000.0001) > useSeaice= .TRUE.,
(PID.TID 0000.0001) > useGGL90 = .TRUE.,
(PID.TID 0000.0001) > useCTRL  = .TRUE.,
(PID.TID 0000.0001) > useSMOOTH= .TRUE.,
(PID.TID 0000.0001) > useSALT_PlUME=.TRUE.,
(PID.TID 0000.0001) > useDiagnostics=.TRUE.,
(PID.TID 0000.0001) > usePTRACERS   = .TRUE.,
(PID.TID 0000.0001) > useGCHEM      = .TRUE.,
(PID.TID 0000.0001) > /
(PID.TID 0000.0001) 
(PID.TID 0000.0001)  PACKAGES_BOOT: finished reading data.pkg
(PID.TID 0000.0001)  PACKAGES_BOOT: On/Off package Summary
 --------  pkgs with a standard "usePKG" On/Off switch in "data.pkg":  --------
 pkg/ggl90                compiled   and   used ( useGGL90                 = T )
 pkg/gmredi               compiled   and   used ( useGMRedi                = T )
 pkg/cal                  compiled   and   used ( useCAL                   = T )
 pkg/exf                  compiled   and   used ( useEXF                   = T )
 pkg/smooth               compiled   and   used ( useSMOOTH                = T )
 pkg/ctrl                 compiled   and   used ( useCTRL                  = T )
 pkg/ptracers             compiled   and   used ( usePTRACERS              = T )
 pkg/gchem                compiled   and   used ( useGCHEM                 = T )
 pkg/seaice               compiled   and   used ( useSEAICE                = T )
 pkg/salt_plume           compiled   and   used ( useSALT_PLUME            = T )
 pkg/diagnostics          compiled   and   used ( useDiagnostics           = T )
 -------- pkgs without standard "usePKG" On/Off switch in "data.pkg":  --------
 pkg/generic_advdiff      compiled   and   used ( useGAD                   = T )
 pkg/mom_common           compiled   and   used ( momStepping              = T )
 pkg/mom_vecinv           compiled   and   used ( +vectorInvariantMomentum = T )
 pkg/monitor              compiled   and   used ( monitorFreq > 0.         = T )
 pkg/debug                compiled but not used ( debugMode                = F )
 pkg/exch2                compiled   and   used
 pkg/rw                   compiled   and   used
 pkg/mdsio                compiled   and   used
(PID.TID 0000.0001)  PACKAGES_BOOT: End of package Summary
(PID.TID 0000.0001) 
(PID.TID 0000.0001) CAL_READPARMS: opening data.cal
(PID.TID 0000.0001)  OPEN_COPY_DATA_FILE: opening file data.cal
(PID.TID 0000.0001) // =======================================================
(PID.TID 0000.0001) // Parameter file "data.cal"
(PID.TID 0000.0001) // =======================================================
(PID.TID 0000.0001) >#
(PID.TID 0000.0001) ># *******************
(PID.TID 0000.0001) ># Calendar Parameters
(PID.TID 0000.0001) ># *******************
(PID.TID 0000.0001) > &CAL_NML
(PID.TID 0000.0001) > TheCalendar='gregorian',
(PID.TID 0000.0001) > startDate_1=19920101,
(PID.TID 0000.0001) ># startDate_2=120000,
(PID.TID 0000.0001) > startDate_2=000000,
(PID.TID 0000.0001) > calendarDumps = .TRUE.,
(PID.TID 0000.0001) > &
(PID.TID 0000.0001) 
(PID.TID 0000.0001) CAL_READPARMS: finished reading data.cal
(PID.TID 0000.0001) EXF_READPARMS: opening data.exf
(PID.TID 0000.0001)  OPEN_COPY_DATA_FILE: opening file data.exf
(PID.TID 0000.0001) // =======================================================
(PID.TID 0000.0001) // Parameter file "data.exf"
(PID.TID 0000.0001) // =======================================================
(PID.TID 0000.0001) ># *********************
(PID.TID 0000.0001) ># External Forcing Data
(PID.TID 0000.0001) ># *********************
(PID.TID 0000.0001) >#
(PID.TID 0000.0001) > &EXF_NML_01
(PID.TID 0000.0001) >#
(PID.TID 0000.0001) > useAtmWind        = .TRUE.,
(PID.TID 0000.0001) >#NCEP VALUES:
(PID.TID 0000.0001) ># exf_albedo        = 0.15,
(PID.TID 0000.0001) ># exf_scal_BulkCdn  = 1.015,
(PID.TID 0000.0001) >#
(PID.TID 0000.0001) >#TO COMBINE WITH ALLOW_ZENITH_ANGLE:
(PID.TID 0000.0001) > exf_albedo        = 0.1,
(PID.TID 0000.0001) > useExfZenIncoming = .TRUE.,
(PID.TID 0000.0001) > select_ZenAlbedo  = 1,
(PID.TID 0000.0001) >#
(PID.TID 0000.0001) > ocean_emissivity = 0.97,
(PID.TID 0000.0001) > ice_emissivity = 0.95,
(PID.TID 0000.0001) > snow_emissivity = 0.95,
(PID.TID 0000.0001) >#
(PID.TID 0000.0001) > exf_iprec         = 32,
(PID.TID 0000.0001) > exf_yftype        = 'RL',
(PID.TID 0000.0001) > useExfYearlyFields= .TRUE.,
(PID.TID 0000.0001) > useExfCheckRange  = .FALSE.,
(PID.TID 0000.0001) > /
(PID.TID 0000.0001) >#
(PID.TID 0000.0001) > &EXF_NML_02
(PID.TID 0000.0001) > atempfile         = 'era_xx/EIG_tmp2m_degC_plus_ECCO_v4r1_ctrl',
(PID.TID 0000.0001) > aqhfile           = 'era_xx/EIG_spfh2m_plus_ECCO_v4r1_ctrl',
(PID.TID 0000.0001) > precipfile        = 'era_xx/EIG_rain_plus_ECCO_v4r1_ctrl',
(PID.TID 0000.0001) > uwindfile         = 'era_xx/EIG_u10m',
(PID.TID 0000.0001) > vwindfile         = 'era_xx/EIG_v10m',
(PID.TID 0000.0001) > swdownfile        = 'era_xx/EIG_dsw_plus_ECCO_v4r1_ctrl',
(PID.TID 0000.0001) > lwdownfile        = 'era_xx/EIG_dlw_plus_ECCO_v4r1_ctrl',
(PID.TID 0000.0001) > apco2file         = 'apCO2',
(PID.TID 0000.0001) >#
(PID.TID 0000.0001) > atempstartdate1   = 19920101,
(PID.TID 0000.0001) > atempstartdate2   = 000000,
(PID.TID 0000.0001) > atempperiod       = 21600.0,
(PID.TID 0000.0001) >#
(PID.TID 0000.0001) > aqhstartdate1     = 19920101,
(PID.TID 0000.0001) > aqhstartdate2     = 000000,
(PID.TID 0000.0001) > aqhperiod         = 21600.0,
(PID.TID 0000.0001) >#
(PID.TID 0000.0001) > precipstartdate1  = 19920101,
(PID.TID 0000.0001) > precipstartdate2  = 030000,
(PID.TID 0000.0001) > precipperiod      = 21600.0,
(PID.TID 0000.0001) >#
(PID.TID 0000.0001) > runofffile        = 'runoff-2d-Fekete-1deg-mon-V4-SMOOTH.bin',
(PID.TID 0000.0001) > runoffperiod      = -12,
(PID.TID 0000.0001) >#
(PID.TID 0000.0001) > uwindstartdate1   = 19920101,
(PID.TID 0000.0001) > uwindstartdate2   = 000000,
(PID.TID 0000.0001) > uwindperiod       = 21600.0,
(PID.TID 0000.0001) >#
(PID.TID 0000.0001) > vwindstartdate1   = 19920101,
(PID.TID 0000.0001) > vwindstartdate2   = 000000,
(PID.TID 0000.0001) > vwindperiod       = 21600.0,
(PID.TID 0000.0001) >#
(PID.TID 0000.0001) > swdownstartdate1  = 19920101,
(PID.TID 0000.0001) > swdownstartdate2  = 030000,
(PID.TID 0000.0001) > swdownperiod      = 21600.0,
(PID.TID 0000.0001) >#
(PID.TID 0000.0001) > lwdownstartdate1  = 19920101,
(PID.TID 0000.0001) > lwdownstartdate2  = 030000,
(PID.TID 0000.0001) > lwdownperiod      = 21600.0,
(PID.TID 0000.0001) >#
(PID.TID 0000.0001) > apco2startdate1  = 19920101,
(PID.TID 0000.0001) > apco2startdate2  = 030000,
(PID.TID 0000.0001) > apco2period      = 86400.0,
(PID.TID 0000.0001) > /
(PID.TID 0000.0001) >#
(PID.TID 0000.0001) > &EXF_NML_03
(PID.TID 0000.0001) >#NOT FOR EIG exf_offset_atemp  = 273.3971,
(PID.TID 0000.0001) > exf_offset_atemp  = 273.15,
(PID.TID 0000.0001) >#NOT FOR NEW RUNOFF FIELD exf_inscal_runoff = 3.1710e-08,
(PID.TID 0000.0001) > exf_inscal_swdown = -1.0,
(PID.TID 0000.0001) > exf_inscal_lwdown = -1.0,
(PID.TID 0000.0001) ># to compensate for sea level rise for nlfs/realFWF
(PID.TID 0000.0001) >#precip_exfremo_intercept = 1.073E-9,
(PID.TID 0000.0001) >#precip_exfremo_slope = -3.340E-18,
(PID.TID 0000.0001) > /
(PID.TID 0000.0001) >#
(PID.TID 0000.0001) > &EXF_NML_04
(PID.TID 0000.0001) > runoff_interpMethod = 0,
(PID.TID 0000.0001) >#
(PID.TID 0000.0001) > atemp_lon0        =   0.0000000D0,
(PID.TID 0000.0001) > atemp_lon_inc     =   0.7031250D0,
(PID.TID 0000.0001) > atemp_lat0        = -89.4628220D0,
(PID.TID 0000.0001) > atemp_lat_inc     = 0.6958694,0.6999817,0.7009048,0.7012634,0.7014313,
(PID.TID 0000.0001) >                     245*0.7017418,
(PID.TID 0000.0001) >                     0.7014313,0.7012634,0.7009048,0.6999817,0.6958694
(PID.TID 0000.0001) > atemp_nlon        = 512,
(PID.TID 0000.0001) > atemp_nlat        = 256,
(PID.TID 0000.0001) >#
(PID.TID 0000.0001) > aqh_lon0        =   0.0000000D0,
(PID.TID 0000.0001) > aqh_lon_inc     =   0.7031250D0,
(PID.TID 0000.0001) > aqh_lat0        = -89.4628220D0,
(PID.TID 0000.0001) > aqh_lat_inc     = 0.6958694,0.6999817,0.7009048,0.7012634,0.7014313,
(PID.TID 0000.0001) >                     245*0.7017418,
(PID.TID 0000.0001) >                     0.7014313,0.7012634,0.7009048,0.6999817,0.6958694
(PID.TID 0000.0001) > aqh_nlon        = 512,
(PID.TID 0000.0001) > aqh_nlat        = 256,
(PID.TID 0000.0001) >#
(PID.TID 0000.0001) > precip_lon0        =   0.0000000D0,
(PID.TID 0000.0001) > precip_lon_inc     =   0.7031250D0,
(PID.TID 0000.0001) > precip_lat0        = -89.4628220D0,
(PID.TID 0000.0001) > precip_lat_inc     = 0.6958694,0.6999817,0.7009048,0.7012634,0.7014313,
(PID.TID 0000.0001) >                     245*0.7017418,
(PID.TID 0000.0001) >                     0.7014313,0.7012634,0.7009048,0.6999817,0.6958694
(PID.TID 0000.0001) > precip_nlon        = 512,
(PID.TID 0000.0001) > precip_nlat        = 256,
(PID.TID 0000.0001) >#
(PID.TID 0000.0001) > uwind_lon0        =   0.0000000D0,
(PID.TID 0000.0001) > uwind_lon_inc     =   0.7031250D0,
(PID.TID 0000.0001) > uwind_lat0        = -89.4628220D0,
(PID.TID 0000.0001) > uwind_lat_inc     = 0.6958694,0.6999817,0.7009048,0.7012634,0.7014313,
(PID.TID 0000.0001) >                     245*0.7017418,
(PID.TID 0000.0001) >                     0.7014313,0.7012634,0.7009048,0.6999817,0.6958694
(PID.TID 0000.0001) > uwind_nlon        = 512,
(PID.TID 0000.0001) > uwind_nlat        = 256,
(PID.TID 0000.0001) >#
(PID.TID 0000.0001) > vwind_lon0        =   0.0000000D0,
(PID.TID 0000.0001) > vwind_lon_inc     =   0.7031250D0,
(PID.TID 0000.0001) > vwind_lat0        = -89.4628220D0,
(PID.TID 0000.0001) > vwind_lat_inc     = 0.6958694,0.6999817,0.7009048,0.7012634,0.7014313,
(PID.TID 0000.0001) >                     245*0.7017418,
(PID.TID 0000.0001) >                     0.7014313,0.7012634,0.7009048,0.6999817,0.6958694
(PID.TID 0000.0001) > vwind_nlon        = 512,
(PID.TID 0000.0001) > vwind_nlat        = 256,
(PID.TID 0000.0001) >#
(PID.TID 0000.0001) > swdown_lon0        =   0.0000000D0,
(PID.TID 0000.0001) > swdown_lon_inc     =   0.7031250D0,
(PID.TID 0000.0001) > swdown_lat0        = -89.4628220D0,
(PID.TID 0000.0001) > swdown_lat_inc     = 0.6958694,0.6999817,0.7009048,0.7012634,0.7014313,
(PID.TID 0000.0001) >                     245*0.7017418,
(PID.TID 0000.0001) >                     0.7014313,0.7012634,0.7009048,0.6999817,0.6958694
(PID.TID 0000.0001) > swdown_nlon        = 512,
(PID.TID 0000.0001) > swdown_nlat        = 256,
(PID.TID 0000.0001) >#
(PID.TID 0000.0001) > lwdown_lon0        =   0.0000000D0,
(PID.TID 0000.0001) > lwdown_lon_inc     =   0.7031250D0,
(PID.TID 0000.0001) > lwdown_lat0        = -89.4628220D0,
(PID.TID 0000.0001) > lwdown_lat_inc     = 0.6958694,0.6999817,0.7009048,0.7012634,0.7014313,
(PID.TID 0000.0001) >                     245*0.7017418,
(PID.TID 0000.0001) >                     0.7014313,0.7012634,0.7009048,0.6999817,0.6958694
(PID.TID 0000.0001) > lwdown_nlon        = 512,
(PID.TID 0000.0001) > lwdown_nlat        = 256,
(PID.TID 0000.0001) >#
(PID.TID 0000.0001) > apco2_lon0         = 0.0D0,
(PID.TID 0000.0001) > apco2_lon_inc      = 360.0D0,
(PID.TID 0000.0001) > apco2_lat0        = -89.4628220D0,
(PID.TID 0000.0001) > apco2_lat_inc     = 0.6958694,0.6999817,0.7009048,0.7012634,0.7014313,
(PID.TID 0000.0001) >                     245*0.7017418,
(PID.TID 0000.0001) >                     0.7014313,0.7012634,0.7009048,0.6999817,0.6958694
(PID.TID 0000.0001) > apco2_nlon         = 2,
(PID.TID 0000.0001) > apco2_nlat         = 256,
(PID.TID 0000.0001) > /
(PID.TID 0000.0001) 
(PID.TID 0000.0001) EXF_READPARMS: reading EXF_NML_01
(PID.TID 0000.0001) EXF_READPARMS: reading EXF_NML_02
(PID.TID 0000.0001) EXF_READPARMS: reading EXF_NML_03
(PID.TID 0000.0001) EXF_READPARMS: reading EXF_NML_04
(PID.TID 0000.0001) EXF_READPARMS: finished reading data.exf
(PID.TID 0000.0001)  GGL90_READPARMS: opening data.ggl90
(PID.TID 0000.0001)  OPEN_COPY_DATA_FILE: opening file data.ggl90
(PID.TID 0000.0001) // =======================================================
(PID.TID 0000.0001) // Parameter file "data.ggl90"
(PID.TID 0000.0001) // =======================================================
(PID.TID 0000.0001) ># =====================================================================
(PID.TID 0000.0001) ># | Parameters for Gaspar et al. (1990)'s TKE vertical mixing scheme  |
(PID.TID 0000.0001) ># =====================================================================
(PID.TID 0000.0001) > &GGL90_PARM01
(PID.TID 0000.0001) > GGL90alpha=30.,
(PID.TID 0000.0001) > GGL90TKEmin  = 1.e-7,
(PID.TID 0000.0001) > GGL90TKEbottom = 1.e-6,
(PID.TID 0000.0001) > mxlMaxFlag =2,
(PID.TID 0000.0001) > mxlSurfFlag=.TRUE.,
(PID.TID 0000.0001) > /
(PID.TID 0000.0001) 
(PID.TID 0000.0001)  GGL90_READPARMS ; starts to read GGL90_PARM01
(PID.TID 0000.0001)  GGL90_READPARMS: read GGL90_PARM01 : OK
(PID.TID 0000.0001)  GGL90_READPARMS: finished reading data.ggl90
(PID.TID 0000.0001) // =======================================================
(PID.TID 0000.0001) // GGL90 configuration
(PID.TID 0000.0001) // =======================================================
(PID.TID 0000.0001) GGL90dumpFreq =   /* GGL90 state write out interval ( s ). */
(PID.TID 0000.0001)                 0.000000000000000E+00
(PID.TID 0000.0001)     ;
(PID.TID 0000.0001) GGL90taveFreq =   /* GGL90 averaging interval ( s ). */
(PID.TID 0000.0001)                 0.000000000000000E+00
(PID.TID 0000.0001)     ;
(PID.TID 0000.0001) GGL90mixingMAPS =   /* GGL90 IO flag. */
(PID.TID 0000.0001)                   F
(PID.TID 0000.0001)     ;
(PID.TID 0000.0001) GGL90writeState =   /* GGL90 IO flag. */
(PID.TID 0000.0001)                   F
(PID.TID 0000.0001)     ;
(PID.TID 0000.0001) GGL90ck =   /* GGL90 viscosity parameter. */
(PID.TID 0000.0001)                 1.000000000000000E-01
(PID.TID 0000.0001)     ;
(PID.TID 0000.0001) GGL90ceps =   /* GGL90 dissipation parameter. */
(PID.TID 0000.0001)                 7.000000000000000E-01
(PID.TID 0000.0001)     ;
(PID.TID 0000.0001) GGL90alpha =   /* GGL90 TKE diffusivity parameter. */
(PID.TID 0000.0001)                 3.000000000000000E+01
(PID.TID 0000.0001)     ;
(PID.TID 0000.0001) GGL90m2 =   /* GGL90 wind stress to vertical stress ratio. */
(PID.TID 0000.0001)                 3.750000000000000E+00
(PID.TID 0000.0001)     ;
(PID.TID 0000.0001) GGL90TKEmin =   /* GGL90 minimum kinetic energy ( m^2/s^2 ). */
(PID.TID 0000.0001)                 1.000000000000000E-07
(PID.TID 0000.0001)     ;
(PID.TID 0000.0001) GGL90TKEsurfMin =   /* GGL90 minimum surface kinetic energy ( m^2/s^2 ). */
(PID.TID 0000.0001)                 1.000000000000000E-04
(PID.TID 0000.0001)     ;
(PID.TID 0000.0001) GGL90TKEbottom =   /* GGL90 bottom kinetic energy ( m^2/s^2 ). */
(PID.TID 0000.0001)                 1.000000000000000E-06
(PID.TID 0000.0001)     ;
(PID.TID 0000.0001) GGL90viscMax =   /* GGL90 upper limit for viscosity ( m^2/s ). */
(PID.TID 0000.0001)                 1.000000000000000E+02
(PID.TID 0000.0001)     ;
(PID.TID 0000.0001) GGL90diffMax =   /* GGL90 upper limit for diffusivity ( m^2/s ). */
(PID.TID 0000.0001)                 1.000000000000000E+02
(PID.TID 0000.0001)     ;
(PID.TID 0000.0001) GGL90diffTKEh =   /* GGL90 horizontal diffusivity for TKE ( m^2/s ). */
(PID.TID 0000.0001)                 0.000000000000000E+00
(PID.TID 0000.0001)     ;
(PID.TID 0000.0001) GGL90mixingLengthMin =   /* GGL90 minimum mixing length ( m ). */
(PID.TID 0000.0001)                 1.000000000000000E-08
(PID.TID 0000.0001)     ;
(PID.TID 0000.0001) mxlMaxFlag =   /* Flag for limiting mixing-length method */
(PID.TID 0000.0001)                       2
(PID.TID 0000.0001)     ;
(PID.TID 0000.0001) mxlSurfFlag =   /* GGL90 flag for near surface mixing. */
(PID.TID 0000.0001)                   T
(PID.TID 0000.0001)     ;
(PID.TID 0000.0001) calcMeanVertShear = /* calc Mean of Vert.Shear (vs shear of Mean flow) */
(PID.TID 0000.0001)                   F
(PID.TID 0000.0001)     ;
(PID.TID 0000.0001) GGL90: GGL90TKEFile =
(PID.TID 0000.0001) GGL90writeState =   /* GGL90 Boundary condition flag. */
(PID.TID 0000.0001)                   T
(PID.TID 0000.0001)     ;
(PID.TID 0000.0001) // =======================================================
(PID.TID 0000.0001) // End of GGL90 config. summary
(PID.TID 0000.0001) // =======================================================
(PID.TID 0000.0001) 
(PID.TID 0000.0001)  GM_READPARMS: opening data.gmredi
(PID.TID 0000.0001)  OPEN_COPY_DATA_FILE: opening file data.gmredi
(PID.TID 0000.0001) // =======================================================
(PID.TID 0000.0001) // Parameter file "data.gmredi"
(PID.TID 0000.0001) // =======================================================
(PID.TID 0000.0001) ># GM+Redi package parameters:
(PID.TID 0000.0001) >#     GM_Small_Number  :: epsilon used in computing the slope
(PID.TID 0000.0001) >#     GM_slopeSqCutoff :: slope^2 cut-off value
(PID.TID 0000.0001) >
(PID.TID 0000.0001) >#-from MOM :
(PID.TID 0000.0001) ># GM_background_K: 	G & Mc.W  diffusion coefficient
(PID.TID 0000.0001) ># GM_maxSlope    :	max slope of isopycnals
(PID.TID 0000.0001) ># GM_Scrit       :	transition for scaling diffusion coefficient
(PID.TID 0000.0001) ># GM_Sd          :	half width scaling for diffusion coefficient
(PID.TID 0000.0001) ># GM_taper_scheme:	slope clipping or one of the tapering schemes
(PID.TID 0000.0001) ># GM_Kmin_horiz  :	horizontal diffusion minimum value
(PID.TID 0000.0001) >
(PID.TID 0000.0001) >#-Option parameters (needs to "define" options in GMREDI_OPTIONS.h")
(PID.TID 0000.0001) ># GM_isopycK     :	isopycnal diffusion coefficient (default=GM_background_K)
(PID.TID 0000.0001) ># GM_AdvForm     :	turn on GM Advective form       (default=Skew flux form)
(PID.TID 0000.0001) >
(PID.TID 0000.0001) > &GM_PARM01
(PID.TID 0000.0001) >  GM_Small_Number  = 1.D-20,
(PID.TID 0000.0001) >  GM_slopeSqCutoff = 1.D+08,
(PID.TID 0000.0001) >  GM_AdvForm         = .TRUE.,
(PID.TID 0000.0001) >  GM_isopycK         = 100.,
(PID.TID 0000.0001) >  GM_background_K    = 100.,
(PID.TID 0000.0001) >  GM_maxSlope        = 4.D-3,
(PID.TID 0000.0001) >  GM_taper_scheme    = 'stableGmAdjTap',
(PID.TID 0000.0001) >  GM_Kmin_horiz      = 10.,
(PID.TID 0000.0001) >  GM_Scrit           = 4.D-3,
(PID.TID 0000.0001) >  GM_Sd              = 1.D-3,
(PID.TID 0000.0001) >#
(PID.TID 0000.0001) >###  GM_Visbeck_alpha   = 1.5D-2,
(PID.TID 0000.0001) >###  GM_Visbeck_alpha   = 0.D0,
(PID.TID 0000.0001) >###  GM_Visbeck_length  = 2.D+5,
(PID.TID 0000.0001) >###  GM_Visbeck_depth   = 1.D+3,
(PID.TID 0000.0001) >###  GM_Visbeck_maxval_K= 2.5D+3,
(PID.TID 0000.0001) > /
(PID.TID 0000.0001) >
(PID.TID 0000.0001) >
(PID.TID 0000.0001) 
(PID.TID 0000.0001)  GM_READPARMS: finished reading data.gmredi
(PID.TID 0000.0001)  PTRACERS_READPARMS: opening data.ptracers
(PID.TID 0000.0001)  OPEN_COPY_DATA_FILE: opening file data.ptracers
(PID.TID 0000.0001) // =======================================================
(PID.TID 0000.0001) // Parameter file "data.ptracers"
(PID.TID 0000.0001) // =======================================================
(PID.TID 0000.0001) > &PTRACERS_PARM01
(PID.TID 0000.0001) > PTRACERS_numInUse=39,
(PID.TID 0000.0001) > PTRACERS_advScheme(1)=39*33,
(PID.TID 0000.0001) > PTRACERS_diffKh(1)=39*0.E3,
(PID.TID 0000.0001) > PTRACERS_diffKr(1)=39*1.E-5,
(PID.TID 0000.0001) > PTRACERS_useGMRedi(1)=39*.TRUE. ,
(PID.TID 0000.0001) ># tracer 1 - phosphate
(PID.TID 0000.0001) > PTRACERS_names(1)='PO4',
(PID.TID 0000.0001) > PTRACERS_units(1)='mmol P/m^3',
(PID.TID 0000.0001) ># tracer 2 - nitrate
(PID.TID 0000.0001) > PTRACERS_names(2)='NO3',
(PID.TID 0000.0001) > PTRACERS_units(2)='mmol N/m^3',
(PID.TID 0000.0001) ># tracer 3 - dissolved iron
(PID.TID 0000.0001) > PTRACERS_names(3)='FeT',
(PID.TID 0000.0001) > PTRACERS_units(3)='mmol Fe/m^3',
(PID.TID 0000.0001) ># tracer 4 - silicic acid
(PID.TID 0000.0001) > PTRACERS_names(4)='SiO2',
(PID.TID 0000.0001) > PTRACERS_units(4)='mmol Si/m^3',
(PID.TID 0000.0001) ># tracer 5 - DOP
(PID.TID 0000.0001) > PTRACERS_names(5)='DOP',
(PID.TID 0000.0001) > PTRACERS_units(5)='mmol P/m^3',
(PID.TID 0000.0001) ># tracer 6 - DON
(PID.TID 0000.0001) > PTRACERS_names(6)='DON',
(PID.TID 0000.0001) > PTRACERS_units(6)='mmol N/m^3',
(PID.TID 0000.0001) ># tracer 7 - DOFe
(PID.TID 0000.0001) > PTRACERS_names(7)='DOFe',
(PID.TID 0000.0001) > PTRACERS_units(7)='mmol Fe/m^3',
(PID.TID 0000.0001) ># tracer 8 - ZOO1P
(PID.TID 0000.0001) > PTRACERS_names(8)='ZOO1P',
(PID.TID 0000.0001) > PTRACERS_units(8)='mmol P/m^3',
(PID.TID 0000.0001) ># tracer 9 - ZOO1N
(PID.TID 0000.0001) > PTRACERS_names(9)='ZOO1N',
(PID.TID 0000.0001) > PTRACERS_units(9)='mmol N/m^3'
(PID.TID 0000.0001) ># tracer 10 - ZOO1Fe
(PID.TID 0000.0001) > PTRACERS_names(10)='ZOO1Fe',
(PID.TID 0000.0001) > PTRACERS_units(10)='mmol Fe/m^3'
(PID.TID 0000.0001) ># tracer 11 - ZOO1Si
(PID.TID 0000.0001) > PTRACERS_names(11)='ZOO1Si',
(PID.TID 0000.0001) > PTRACERS_units(11)='mmol Si/m^3'
(PID.TID 0000.0001) ># tracer 12 - ZOO2P
(PID.TID 0000.0001) > PTRACERS_names(12)='ZOO2P',
(PID.TID 0000.0001) > PTRACERS_units(12)='mmol P/m^3',
(PID.TID 0000.0001) ># tracer 13 - ZOO2N
(PID.TID 0000.0001) > PTRACERS_names(13)='ZOO2N',
(PID.TID 0000.0001) > PTRACERS_units(13)='mmol N/m^3'
(PID.TID 0000.0001) ># tracer 14 - ZOO2Fe
(PID.TID 0000.0001) > PTRACERS_names(14)='ZOO2Fe',
(PID.TID 0000.0001) > PTRACERS_units(14)='mmol Fe/m^3'
(PID.TID 0000.0001) ># tracer 15 - ZOO2Si
(PID.TID 0000.0001) > PTRACERS_names(15)='ZOO2Si',
(PID.TID 0000.0001) > PTRACERS_units(15)='mmol Si/m^3'
(PID.TID 0000.0001) ># tracer 16 - POP
(PID.TID 0000.0001) > PTRACERS_names(16)='POP',
(PID.TID 0000.0001) > PTRACERS_units(16)='mmol P/m^3',
(PID.TID 0000.0001) ># tracer 17 - PON
(PID.TID 0000.0001) > PTRACERS_names(17)='PON',
(PID.TID 0000.0001) > PTRACERS_units(17)='mmol N/m^3',
(PID.TID 0000.0001) ># tracer 18 - POFe
(PID.TID 0000.0001) > PTRACERS_names(18)='POFe',
(PID.TID 0000.0001) > PTRACERS_units(18)='mmol Fe/m^3'
(PID.TID 0000.0001) ># tracer 19 - POSi
(PID.TID 0000.0001) > PTRACERS_names(19)='POSi',
(PID.TID 0000.0001) > PTRACERS_units(19)='mmol Si/m^3'
(PID.TID 0000.0001) ># tracer 20 - NH4
(PID.TID 0000.0001) > PTRACERS_names(20)='NH4',
(PID.TID 0000.0001) > PTRACERS_units(20)='mmol N/m^3'
(PID.TID 0000.0001) ># tracer 21 - NO2
(PID.TID 0000.0001) > PTRACERS_names(21)='NO2',
(PID.TID 0000.0001) > PTRACERS_units(21)='mmol N/m^3'
(PID.TID 0000.0001) ># tracer 22 - PHYT01
(PID.TID 0000.0001) > PTRACERS_names(22)='Phy01',
(PID.TID 0000.0001) > PTRACERS_units(22)='mmol P/m^3'
(PID.TID 0000.0001) ># tracer 23 - PHYT02
(PID.TID 0000.0001) > PTRACERS_names(23)='Phy02',
(PID.TID 0000.0001) > PTRACERS_units(23)='mmol P/m^3'
(PID.TID 0000.0001) ># tracer 24 - PHYT03
(PID.TID 0000.0001) > PTRACERS_names(24)='Phy03',
(PID.TID 0000.0001) > PTRACERS_units(24)='mmol P/m^3'
(PID.TID 0000.0001) ># tracer 25 - PHYT04
(PID.TID 0000.0001) > PTRACERS_names(25)='Phy04',
(PID.TID 0000.0001) > PTRACERS_units(25)='mmol P/m^3'
(PID.TID 0000.0001) ># tracer 26 - PHYT05
(PID.TID 0000.0001) > PTRACERS_names(26)='Phy05',
(PID.TID 0000.0001) > PTRACERS_units(26)='mmol P/m^3'
(PID.TID 0000.0001) ># tracer 27 - CHL01
(PID.TID 0000.0001) > PTRACERS_names(27)='Chl01',
(PID.TID 0000.0001) > PTRACERS_units(27)='mg Chla/m^3'
(PID.TID 0000.0001) ># tracer 28 - CHL02
(PID.TID 0000.0001) > PTRACERS_names(28)='Chl02',
(PID.TID 0000.0001) > PTRACERS_units(28)='mg Chla/m^3'
(PID.TID 0000.0001) ># tracer 29 - CHL03
(PID.TID 0000.0001) > PTRACERS_names(29)='Chl03',
(PID.TID 0000.0001) > PTRACERS_units(29)='mg Chla/m^3'
(PID.TID 0000.0001) ># tracer 30 - CHL04
(PID.TID 0000.0001) > PTRACERS_names(30)='Chl04',
(PID.TID 0000.0001) > PTRACERS_units(30)='mg Chla/m^3'
(PID.TID 0000.0001) ># tracer 31 - CHL05
(PID.TID 0000.0001) > PTRACERS_names(31)='Chl05',
(PID.TID 0000.0001) > PTRACERS_units(31)='mg Chla/m^3'
(PID.TID 0000.0001) ># tracer 32 - DIC
(PID.TID 0000.0001) > PTRACERS_names(32)='DIC',
(PID.TID 0000.0001) > PTRACERS_units(32)='mmol C/m^3'
(PID.TID 0000.0001) > PTRACERS_EvPrRn(32)= 0.
(PID.TID 0000.0001) ># tracer 33 - DOC
(PID.TID 0000.0001) > PTRACERS_names(33)='DOC',
(PID.TID 0000.0001) > PTRACERS_units(33)='mmol C/m^3'
(PID.TID 0000.0001) ># tracer 34 - POC
(PID.TID 0000.0001) > PTRACERS_names(34)='POC',
(PID.TID 0000.0001) > PTRACERS_units(34)='mmol C/m^3'
(PID.TID 0000.0001) ># tracer 35 - PIC
(PID.TID 0000.0001) > PTRACERS_names(35)='PIC',
(PID.TID 0000.0001) > PTRACERS_units(35)='mmol C/m^3'
(PID.TID 0000.0001) ># tracer 36 - ALK
(PID.TID 0000.0001) > PTRACERS_names(36)='ALK',
(PID.TID 0000.0001) > PTRACERS_units(36)='mmol eq/m^3'
(PID.TID 0000.0001) > PTRACERS_EvPrRn(36)= 0.
(PID.TID 0000.0001) ># tracer 37 - O2
(PID.TID 0000.0001) > PTRACERS_names(37)='O2',
(PID.TID 0000.0001) > PTRACERS_units(37)='mmol O/m^3'
(PID.TID 0000.0001) ># tracer 38 - ZOOC1
(PID.TID 0000.0001) > PTRACERS_names(38)='ZOOC1',
(PID.TID 0000.0001) > PTRACERS_units(38)='mmol C/m^3'
(PID.TID 0000.0001) ># tracer 39 - ZOOC2
(PID.TID 0000.0001) > PTRACERS_names(39)='ZOOC2',
(PID.TID 0000.0001) > PTRACERS_units(39)='mmol C/m^3'
(PID.TID 0000.0001) > &
(PID.TID 0000.0001) 
(PID.TID 0000.0001)  PTRACERS_READPARMS: finished reading data.ptracers
(PID.TID 0000.0001)  GCHEM_READPARMS: opening data.gchem
(PID.TID 0000.0001)  OPEN_COPY_DATA_FILE: opening file data.gchem
(PID.TID 0000.0001) // =======================================================
(PID.TID 0000.0001) // Parameter file "data.gchem"
(PID.TID 0000.0001) // =======================================================
(PID.TID 0000.0001) > &GCHEM_PARM01
(PID.TID 0000.0001) > useDARWIN=.TRUE.,
(PID.TID 0000.0001) >  nsubtime=1,
(PID.TID 0000.0001) > /
(PID.TID 0000.0001) 
(PID.TID 0000.0001)  GCHEM_READPARMS: finished reading data.gchem
(PID.TID 0000.0001)  DARWIN_READPARMS: opening data.darwin
(PID.TID 0000.0001)  OPEN_COPY_DATA_FILE: opening file data.darwin
(PID.TID 0000.0001) // =======================================================
(PID.TID 0000.0001) // Parameter file "data.darwin"
(PID.TID 0000.0001) // =======================================================
(PID.TID 0000.0001) > &DARWIN_FORCING
(PID.TID 0000.0001) > darwin_IronFile='llc270_Mahowald_2009_soluble_iron_dust.bin',
(PID.TID 0000.0001) > darwin_forcingPeriod=2629800.,
(PID.TID 0000.0001) > darwin_forcingCycle=31557600.,
(PID.TID 0000.0001) > darwin_seed=56,
(PID.TID 0000.0001) > /
(PID.TID 0000.0001) >
(PID.TID 0000.0001) > &DIC_FORCING
(PID.TID 0000.0001) >#DIC_windFile  = 'input/tren_speed_mth-2d.bin',
(PID.TID 0000.0001) >#DIC_atmospFile= ' ',
(PID.TID 0000.0001) > dic_int1=2,
(PID.TID 0000.0001) > dic_pCO2=370.D-6,
(PID.TID 0000.0001) > /
(PID.TID 0000.0001) >
(PID.TID 0000.0001) 
(PID.TID 0000.0001)  DARWIN_READPARMS: finished reading data.darwin
(PID.TID 0000.0001) // ===================================
(PID.TID 0000.0001) // darwin parameters
(PID.TID 0000.0001) // ===================================
(PID.TID 0000.0001) darwin_seed = /* seed for random number generator */
(PID.TID 0000.0001)                      56
(PID.TID 0000.0001)     ;
(PID.TID 0000.0001)  -----------------------------------
(PID.TID 0000.0001)  ===================================
(PID.TID 0000.0001) 
(PID.TID 0000.0001)  SEAICE_READPARMS: opening data.seaice
(PID.TID 0000.0001)  OPEN_COPY_DATA_FILE: opening file data.seaice
(PID.TID 0000.0001) // =======================================================
(PID.TID 0000.0001) // Parameter file "data.seaice"
(PID.TID 0000.0001) // =======================================================
(PID.TID 0000.0001) ># SEAICE parameters
(PID.TID 0000.0001) > &SEAICE_PARM01
(PID.TID 0000.0001) >      SEAICEuseTILT=.FALSE.,
(PID.TID 0000.0001) >      SEAICEpresH0=2.,
(PID.TID 0000.0001) >      SEAICEpresPow0=1,
(PID.TID 0000.0001) >      SEAICEpresPow1=3,
(PID.TID 0000.0001) >      SEAICE_multDim=1,
(PID.TID 0000.0001) >      SEAICErestoreUnderIce=.TRUE.,
(PID.TID 0000.0001) >      SEAICE_area_max=0.95,
(PID.TID 0000.0001) >#for backward compatibility (before 2011 june 19, those were the defaults)
(PID.TID 0000.0001) >#     SEAICE_area_floor=0.15,
(PID.TID 0000.0001) >#     SEAICE_area_reg=0.15,
(PID.TID 0000.0001) >      SEAICE_salt0=4.,
(PID.TID 0000.0001) ># for long time step:
(PID.TID 0000.0001) >#      SEAICE_deltaTevp   = 720.,
(PID.TID 0000.0001) ># for regular time step:
(PID.TID 0000.0001) >#      SEAICE_deltaTevp   = 60.,
(PID.TID 0000.0001) ># for lsr:
(PID.TID 0000.0001) >      LSR_ERROR          = 2.e-4,
(PID.TID 0000.0001) >      SEAICEuseDYNAMICS  = .TRUE.,
(PID.TID 0000.0001) ># BAD OPTION -- DO NOT USE -- SEAICE_maskRHS     = .TRUE.,
(PID.TID 0000.0001) >      MIN_ATEMP          = -40.,
(PID.TID 0000.0001) >      MIN_TICE           = -40.,
(PID.TID 0000.0001) >      SEAICEadvScheme    = 30,
(PID.TID 0000.0001) >      SEAICEuseFluxForm = .TRUE.,
(PID.TID 0000.0001) >      SEAICEadvSnow      = .TRUE.,
(PID.TID 0000.0001) >#      SEAICEadvSalt      = .TRUE.,
(PID.TID 0000.0001) >      SEAICEdiffKhHeff   = 400.,
(PID.TID 0000.0001) >      SEAICEdiffKhArea   = 400.,
(PID.TID 0000.0001) >      SEAICEdiffKhSnow   = 400.,
(PID.TID 0000.0001) >#      SEAICEdiffKhSalt   = 400.,
(PID.TID 0000.0001) >      SEAICEuseFlooding  = .TRUE.,
(PID.TID 0000.0001) >      SEAICE_mcPheePiston= 3.858024691358025E-05,
(PID.TID 0000.0001) >      SEAICE_frazilFrac  = 1.,
(PID.TID 0000.0001) >      SEAICE_mcPheeTaper = 0.,
(PID.TID 0000.0001) >      SEAICE_areaLossFormula=2,
(PID.TID 0000.0001) >      SEAICEheatConsFix  = .TRUE.,
(PID.TID 0000.0001) >      SEAICE_tempFrz0    = -1.96,
(PID.TID 0000.0001) >      SEAICE_dTempFrz_dS = 0.,
(PID.TID 0000.0001) >      SEAICEuseMetricTerms = .TRUE.,
(PID.TID 0000.0001) >      SEAICE_no_slip     = .FALSE.,
(PID.TID 0000.0001) >      SEAICE_clipVelocities = .TRUE.,
(PID.TID 0000.0001) >#take 33% out of (1-albedo)
(PID.TID 0000.0001) >      SEAICE_dryIceAlb   = 0.84,
(PID.TID 0000.0001) >      SEAICE_wetIceAlb   = 0.78,
(PID.TID 0000.0001) >      SEAICE_drySnowAlb  = 0.90,
(PID.TID 0000.0001) >      SEAICE_wetSnowAlb  = 0.8 ,
(PID.TID 0000.0001) >#default albedos
(PID.TID 0000.0001) >      SEAICE_dryIceAlb_south   = 0.75
(PID.TID 0000.0001) >      SEAICE_wetIceAlb_south   = 0.66
(PID.TID 0000.0001) >      SEAICE_drySnowAlb_south  = 0.84
(PID.TID 0000.0001) >      SEAICE_wetSnowAlb_south  = 0.7
(PID.TID 0000.0001) > /
(PID.TID 0000.0001) >#
(PID.TID 0000.0001) > &SEAICE_PARM02
(PID.TID 0000.0001) > /
(PID.TID 0000.0001) >
(PID.TID 0000.0001) 
(PID.TID 0000.0001)  SEAICE_READPARMS: finished reading data.seaice
(PID.TID 0000.0001) SALT_PLUME_READPARMS: opening data.salt_plume
(PID.TID 0000.0001)  OPEN_COPY_DATA_FILE: opening file data.salt_plume
(PID.TID 0000.0001) // =======================================================
(PID.TID 0000.0001) // Parameter file "data.salt_plume"
(PID.TID 0000.0001) // =======================================================
(PID.TID 0000.0001) > &SALT_PLUME_PARM01
(PID.TID 0000.0001) > SPsalFRAC= 0.5D0,
(PID.TID 0000.0001) > &
(PID.TID 0000.0001) 
(PID.TID 0000.0001) SALT_PLUME_READPARMS: finished reading data.salt_plume
(PID.TID 0000.0001) OPTIM_READPARMS: opening data.optim
(PID.TID 0000.0001)  OPEN_COPY_DATA_FILE: opening file data.optim
(PID.TID 0000.0001) // =======================================================
(PID.TID 0000.0001) // Parameter file "data.optim"
(PID.TID 0000.0001) // =======================================================
(PID.TID 0000.0001) >#
(PID.TID 0000.0001) ># ********************************
(PID.TID 0000.0001) ># Off-line optimization parameters
(PID.TID 0000.0001) ># ********************************
(PID.TID 0000.0001) > &OPTIM
(PID.TID 0000.0001) > optimcycle=42,
(PID.TID 0000.0001) > /
(PID.TID 0000.0001) 
(PID.TID 0000.0001) OPTIM_READPARMS: finished reading data.optim
(PID.TID 0000.0001) CTRL_READPARMS: opening data.ctrl
(PID.TID 0000.0001)  OPEN_COPY_DATA_FILE: opening file data.ctrl
(PID.TID 0000.0001) // =======================================================
(PID.TID 0000.0001) // Parameter file "data.ctrl"
(PID.TID 0000.0001) // =======================================================
(PID.TID 0000.0001) ># *********************
(PID.TID 0000.0001) ># ECCO control variables
(PID.TID 0000.0001) ># *********************
(PID.TID 0000.0001) > &ctrl_nml
(PID.TID 0000.0001) > doSinglePrecTapelev=.TRUE.,
(PID.TID 0000.0001) > ctrlSmoothCorrel2D=.TRUE.,
(PID.TID 0000.0001) > ctrlSmoothCorrel3D=.TRUE.,
(PID.TID 0000.0001) >#to start from given xx*00.data files
(PID.TID 0000.0001) >  doinitxx = .TRUE.,
(PID.TID 0000.0001) >  doMainUnpack = .FALSE.,
(PID.TID 0000.0001) >  doMainPack = .FALSE.,
(PID.TID 0000.0001) >#to start from given ecco_ctrl... files
(PID.TID 0000.0001) ># doinitxx = .FALSE.,
(PID.TID 0000.0001) > &
(PID.TID 0000.0001) >#
(PID.TID 0000.0001) ># *********************
(PID.TID 0000.0001) ># names for ctrl_pack/unpack
(PID.TID 0000.0001) ># *********************
(PID.TID 0000.0001) > &ctrl_packnames
(PID.TID 0000.0001) > &
(PID.TID 0000.0001) >#
(PID.TID 0000.0001) ># *********************
(PID.TID 0000.0001) ># names for CTRL_GENARR2D,3D CTRL_GENTIM2D
(PID.TID 0000.0001) ># *********************
(PID.TID 0000.0001) > &CTRL_NML_GENARR
(PID.TID 0000.0001) > xx_gentim2d_weight(1) = 'wprecip.data',
(PID.TID 0000.0001) > xx_gentim2d_file(1)='xx_precip',
(PID.TID 0000.0001) > xx_gentim2d_startdate1(1)=19920101,
(PID.TID 0000.0001) > xx_gentim2d_startdate2(1)=60000,
(PID.TID 0000.0001) > xx_gentim2d_period(1)=1209600.0,
(PID.TID 0000.0001) > xx_gentim2d_preproc(1,1)='WC01',
(PID.TID 0000.0001) > mult_gentim2d(1) = 0.,
(PID.TID 0000.0001) >#
(PID.TID 0000.0001) > xx_gentim2d_weight(2) = 'wlwdown.data',
(PID.TID 0000.0001) > xx_gentim2d_file(2)='xx_lwdown',
(PID.TID 0000.0001) > xx_gentim2d_startdate1(2)=19920101,
(PID.TID 0000.0001) > xx_gentim2d_startdate2(2)=60000,
(PID.TID 0000.0001) > xx_gentim2d_period(2)=1209600.0,
(PID.TID 0000.0001) > xx_gentim2d_preproc(1,2)='WC01',
(PID.TID 0000.0001) > mult_gentim2d(2) = 0.,
(PID.TID 0000.0001) >#
(PID.TID 0000.0001) > xx_gentim2d_weight(3) = 'wswdown.data',
(PID.TID 0000.0001) > xx_gentim2d_file(3)='xx_swdown',
(PID.TID 0000.0001) > xx_gentim2d_startdate1(3)=19920101,
(PID.TID 0000.0001) > xx_gentim2d_startdate2(3)=60000,
(PID.TID 0000.0001) > xx_gentim2d_period(3)=1209600.0,
(PID.TID 0000.0001) > xx_gentim2d_preproc(1,3)='WC01',
(PID.TID 0000.0001) > mult_gentim2d(3) = 0.,
(PID.TID 0000.0001) >#
(PID.TID 0000.0001) > xx_gentim2d_weight(4) = 'waqh.data',
(PID.TID 0000.0001) > xx_gentim2d_file(4)='xx_aqh',
(PID.TID 0000.0001) > xx_gentim2d_startdate1(4)=19920101,
(PID.TID 0000.0001) > xx_gentim2d_startdate2(4)=60000,
(PID.TID 0000.0001) > xx_gentim2d_period(4)=1209600.0,
(PID.TID 0000.0001) > xx_gentim2d_preproc(1,4)='WC01',
(PID.TID 0000.0001) > mult_gentim2d(4) = 0.,
(PID.TID 0000.0001) >#
(PID.TID 0000.0001) > xx_gentim2d_weight(5) = 'watemp.data',
(PID.TID 0000.0001) > xx_gentim2d_file(5)='xx_atemp',
(PID.TID 0000.0001) > xx_gentim2d_startdate1(5)=19920101,
(PID.TID 0000.0001) > xx_gentim2d_startdate2(5)=60000,
(PID.TID 0000.0001) > xx_gentim2d_period(5)=1209600.0,
(PID.TID 0000.0001) > xx_gentim2d_preproc(1,5)='WC01',
(PID.TID 0000.0001) > mult_gentim2d(5) = 0.,
(PID.TID 0000.0001) >#
(PID.TID 0000.0001) > xx_gentim2d_weight(6) = 'wuwind.data',
(PID.TID 0000.0001) > xx_gentim2d_file(6)='xx_uwind',
(PID.TID 0000.0001) > xx_gentim2d_startdate1(6)=19920101,
(PID.TID 0000.0001) > xx_gentim2d_startdate2(6)=60000,
(PID.TID 0000.0001) > xx_gentim2d_period(6)=1209600.0,
(PID.TID 0000.0001) > xx_gentim2d_preproc(1,6)='WC01',
(PID.TID 0000.0001) > mult_gentim2d(6) = 0.,
(PID.TID 0000.0001) >#
(PID.TID 0000.0001) > xx_gentim2d_weight(7) = 'wvwind.data',
(PID.TID 0000.0001) > xx_gentim2d_file(7)='xx_vwind',
(PID.TID 0000.0001) > xx_gentim2d_startdate1(7)=19920101,
(PID.TID 0000.0001) > xx_gentim2d_startdate2(7)=60000,
(PID.TID 0000.0001) > xx_gentim2d_period(7)=1209600.0,
(PID.TID 0000.0001) > xx_gentim2d_preproc(1,7)='WC01',
(PID.TID 0000.0001) > mult_gentim2d(7) = 0.,
(PID.TID 0000.0001) >#
(PID.TID 0000.0001) > xx_genarr3d_weight(1) = 'wkapgmFld.data',
(PID.TID 0000.0001) > xx_genarr3d_file(1)='xx_kapgm',
(PID.TID 0000.0001) > xx_genarr3d_preproc(1,1)='WC01',
(PID.TID 0000.0001) > xx_genarr3d_bounds(1:5,1)=1.E2,2.E2,0.9E4,1.E4,0.,
(PID.TID 0000.0001) > mult_genarr3d(1) = 0.,
(PID.TID 0000.0001) >#
(PID.TID 0000.0001) > xx_genarr3d_weight(2) = 'wkaprediFld.data',
(PID.TID 0000.0001) > xx_genarr3d_file(2)='xx_kapredi',
(PID.TID 0000.0001) > xx_genarr3d_preproc(1,2)='WC01',
(PID.TID 0000.0001) > xx_genarr3d_bounds(1:5,2)=1.E2,2.E2,0.9E4,1.E4,0.,
(PID.TID 0000.0001) > mult_genarr3d(2) = 0.,
(PID.TID 0000.0001) >#
(PID.TID 0000.0001) > xx_genarr3d_weight(3) = 'wdiffkrFld.data',
(PID.TID 0000.0001) > xx_genarr3d_file(3)='xx_diffkr',
(PID.TID 0000.0001) > xx_genarr3d_preproc(1,3)='WC01',
(PID.TID 0000.0001) > xx_genarr3d_bounds(1:5,3)=1.E-6,2.E-6,4.E-4,5.E-4,0.,
(PID.TID 0000.0001) > mult_genarr3d(3) = 0.,
(PID.TID 0000.0001) >#
(PID.TID 0000.0001) > &
(PID.TID 0000.0001) 
(PID.TID 0000.0001) CTRL_READPARMS: finished reading data.ctrl
(PID.TID 0000.0001) SMOOTH_READPARMS: opening data.smooth
(PID.TID 0000.0001)  OPEN_COPY_DATA_FILE: opening file data.smooth
(PID.TID 0000.0001) // =======================================================
(PID.TID 0000.0001) // Parameter file "data.smooth"
(PID.TID 0000.0001) // =======================================================
(PID.TID 0000.0001) > &SMOOTH_NML
(PID.TID 0000.0001) > smooth2Dnbt(1)=1000
(PID.TID 0000.0001) > smooth2Dtype(1)=1
(PID.TID 0000.0001) > smooth2Dsize(1)=2
(PID.TID 0000.0001) > smooth2Dfilter(1)=0
(PID.TID 0000.0001) > smooth3Dnbt(1)=1000
(PID.TID 0000.0001) > smooth3DtypeH(1)=1
(PID.TID 0000.0001) > smooth3DsizeH(1)=3
(PID.TID 0000.0001) > smooth3DtypeZ(1)=1
(PID.TID 0000.0001) > smooth3DsizeZ(1)=3
(PID.TID 0000.0001) > smooth3Dfilter(1)=0
(PID.TID 0000.0001) > /
(PID.TID 0000.0001) 
(PID.TID 0000.0001) SMOOTH_READPARMS: finished reading data.smooth
(PID.TID 0000.0001) // =======================================================
(PID.TID 0000.0001) // pkg/smooth configuration
(PID.TID 0000.0001) // =======================================================
(PID.TID 0000.0001) smooth 2D parameters:  1  1000    0.    0.
(PID.TID 0000.0001) smooth 3D parameters:  1  1000    0.    0.    0.
(PID.TID 0000.0001) // =======================================================
(PID.TID 0000.0001) // End of pkg/smooth config. summary
(PID.TID 0000.0001) // =======================================================
(PID.TID 0000.0001) 
(PID.TID 0000.0001)  DIAGNOSTICS_READPARMS: opening data.diagnostics
(PID.TID 0000.0001)  OPEN_COPY_DATA_FILE: opening file data.diagnostics
(PID.TID 0000.0001) // =======================================================
(PID.TID 0000.0001) // Parameter file "data.diagnostics"
(PID.TID 0000.0001) // =======================================================
(PID.TID 0000.0001) ># Diagnostic Package Choices
(PID.TID 0000.0001) >#-----------------
(PID.TID 0000.0001) ># for each output-stream:
(PID.TID 0000.0001) >#  filename(n) : prefix of the output file name (only 8.c long) for outp.stream n
(PID.TID 0000.0001) >#  frequency(n):< 0 : write snap-shot output every multiple of |frequency| (iter)
(PID.TID 0000.0001) >#               > 0 : write time-average output every multiple of frequency (iter)
(PID.TID 0000.0001) >#  levels(:,n) : list of levels to write to file (Notes: declared as REAL)
(PID.TID 0000.0001) >#                 when this entry is missing, select all common levels of this list
(PID.TID 0000.0001) >#  fields(:,n) : list of diagnostics fields (8.c) (see "available_diagnostics" file
(PID.TID 0000.0001) >#                 for the list of all available diag. in this particular config)
(PID.TID 0000.0001) >#--------------------------------------------------------------------
(PID.TID 0000.0001) >#
(PID.TID 0000.0001) ># 6-hourly 2-D fields:
(PID.TID 0000.0001) ># ====================
(PID.TID 0000.0001) >#
(PID.TID 0000.0001) ># ETAN     Perturbation of Surface (pressure, height) (Pa,m)
(PID.TID 0000.0001) ># PHIBOT   ocean bottom pressure / top. atmos geo-Potential
(PID.TID 0000.0001) ># oceTAUX  zonal surface wind stress, >0 increases uVel (N/m^2)
(PID.TID 0000.0001) ># oceTAUY  meridional surf. wind stress, >0 increases vVel (N/m^2)
(PID.TID 0000.0001) ># surForcT model surface forcing for Temperature, >0 increases theta (W/m^2)
(PID.TID 0000.0001) ># oceQsw   net Short-Wave radiation (+=down), >0 increases theta (W/m^2)
(PID.TID 0000.0001) ># surForcS model surface forcing for Salinity, >0 increases salinity (g/m^2/s)
(PID.TID 0000.0001) ># KPPhbl   KPP boundary layer depth, bulk Ri criterion
(PID.TID 0000.0001) ># KPPmld   Mixed layer depth, dT=.8degC density criterion
(PID.TID 0000.0001) ># SSS      Sea Surface Salinity (g/kg)
(PID.TID 0000.0001) ># SST      Sea Surface Temperature (degC,K)
(PID.TID 0000.0001) ># UVEL_k2  Zonal Component of Velocity at level 2 (m/s)
(PID.TID 0000.0001) ># VVEL_k2  Meridional Component of Velocity at level 2 (m/s)
(PID.TID 0000.0001) >#
(PID.TID 0000.0001) ># daily 2-D fields:
(PID.TID 0000.0001) ># =================
(PID.TID 0000.0001) >#
(PID.TID 0000.0001) ># SIarea   SEAICE fractional ice-covered area [0 to 1]
(PID.TID 0000.0001) ># SIheff   SEAICE effective ice thickness (m)
(PID.TID 0000.0001) ># SIuice   SEAICE zonal ice velocity, >0 from West to East (m/s)
(PID.TID 0000.0001) ># SIvice   SEAICE merid. ice velocity, >0 from South to North (m/s)
(PID.TID 0000.0001) ># SIhsnow  SEAICE snow thickness (m)
(PID.TID 0000.0001) ># SIhsalt  SEAICE effective salinity (g/m^2)
(PID.TID 0000.0001) >#
(PID.TID 0000.0001) ># monthly 2-D fields:
(PID.TID 0000.0001) ># ===================
(PID.TID 0000.0001) >#
(PID.TID 0000.0001) ># ETANSQ   Square of Perturbation of Sfc (Pa2,m2)
(PID.TID 0000.0001) ># EXFhs    Sensible heat flux into ocean, >0 increases theta (W/m^2)
(PID.TID 0000.0001) ># EXFhl    Latent heat flux into ocean, >0 increases theta (W/m^2)
(PID.TID 0000.0001) ># EXFlwnet Net upward longwave radiation, >0 decreases theta (W/m^2)
(PID.TID 0000.0001) ># oceFWflx net surface Fresh-Water flux into ocean, >0 decreases salinity (kg/m^2/s)
(PID.TID 0000.0001) ># oceSflux net surface Salt flux into the ocean, >0 increases salinity (g/m^2/s)
(PID.TID 0000.0001) ># oceQnet  net surface heat flux into the ocean, >0 increases theta (W/m^2)
(PID.TID 0000.0001) ># SRELAX   surface salinity relaxation, >0 increases salt (g/m^2/s)
(PID.TID 0000.0001) ># TFLUX    total heat flux (match heat-content variations), >0 increases theta (W/m^2)
(PID.TID 0000.0001) ># SFLUX    total salt flux (match salt-content variations), >0 increases salt (g/m^2/s)
(PID.TID 0000.0001) >#
(PID.TID 0000.0001) ># monthly 3-D fields:
(PID.TID 0000.0001) ># ===================
(PID.TID 0000.0001) >#
(PID.TID 0000.0001) ># SALTanom Salt anomaly (=SALT-35; g/kg)
(PID.TID 0000.0001) ># THETA    Potential Temperature (degC,K)
(PID.TID 0000.0001) ># UVELMASS Zonal Mass-Weighted Comp of Velocity (m/s)
(PID.TID 0000.0001) ># VVELMASS Meridional Mass-Weighted Comp of Velocity (m/s)
(PID.TID 0000.0001) ># WVELMASS Vertical Mass-Weighted Comp of Velocity (m/s)
(PID.TID 0000.0001) >#
(PID.TID 0000.0001) ># SALTSQan Square of Salt anomaly (=(SALT-35)^2 (g^2/kg^2)
(PID.TID 0000.0001) ># THETASQ  Square of Potential Temperature (K2)
(PID.TID 0000.0001) ># UVELSQ   Square of Zonal Comp of Velocity (m2/s2)
(PID.TID 0000.0001) ># VVELSQ   Square of Meridional Comp of Velocity (m2/s2)
(PID.TID 0000.0001) ># WVELSQ   Square of Vertical Comp of Velocity (m2/s2)
(PID.TID 0000.0001) ># UV_VEL_Z Meridional Transport of Zonal Momentum (m2/s2)
(PID.TID 0000.0001) ># WU_VEL   Vertical Transport of Zonal Momentum (m^2/s^2)
(PID.TID 0000.0001) ># WV_VEL   Vertical Transport of Meridional Momentum (m^2/s^2)
(PID.TID 0000.0001) >#
(PID.TID 0000.0001) ># UTHMASS  Zonal Mass-Weight Transp of Pot Temp (K.m/s)
(PID.TID 0000.0001) ># VTHMASS  Meridional Mass-Weight Transp of Pot Temp (K.m/s)
(PID.TID 0000.0001) ># WTHMASS  Vertical Mass-Weight Transp of Pot Temp (K.m/s)
(PID.TID 0000.0001) ># USLTMASS Zonal Mass-Weight Transp of Salt (g/kg.m/s)
(PID.TID 0000.0001) ># VSLTMASS Meridional Mass-Weight Transp of Salt (g/kg.m/s)
(PID.TID 0000.0001) ># WSLTMASS Vertical Mass-Weight Transp of Salt (g/kg.m/s)
(PID.TID 0000.0001) >#
(PID.TID 0000.0001) ># RHOAnoma Density Anomaly (=Rho-rhoConst; kg/m^3)
(PID.TID 0000.0001) ># DRHODR   Stratification: d.Sigma/dr (kg/m3/r_unit; kg/m^4)
(PID.TID 0000.0001) ># RHOANOSQ Square of Density Anomaly (=(Rho-rhoConst)^2; kg^2/m^6)
(PID.TID 0000.0001) ># URHOMASS Zonal Transport of Density (kg/m^2/s)
(PID.TID 0000.0001) ># VRHOMASS Meridional Transport of Density (kg/m^2/s)
(PID.TID 0000.0001) ># WRHOMASS Vertical Transport of Potential Density (kg/m^2/s)
(PID.TID 0000.0001) >#
(PID.TID 0000.0001) > &diagnostics_list
(PID.TID 0000.0001) >  frequency(1)  = -2635200.,
(PID.TID 0000.0001) >   timePhase(1) = 0.,
(PID.TID 0000.0001) >   fields(1,1)  = 'ETAN    ',
(PID.TID 0000.0001) >   filename(1)  = 'ETAN_snap',
(PID.TID 0000.0001) >  frequency(2) = 2635200.,
(PID.TID 0000.0001) >   fields(1,2) = 'SALTanom',
(PID.TID 0000.0001) >   filename(2) = 'SALTanom',
(PID.TID 0000.0001) >  frequency(3) = 2635200.,
(PID.TID 0000.0001) >   fields(1,3) = 'THETA   ',
(PID.TID 0000.0001) >   filename(3) = 'THETA',
(PID.TID 0000.0001) >  frequency(4) = 2635200.,
(PID.TID 0000.0001) >   fields(1,4) = 'TRAC32  ',
(PID.TID 0000.0001) >   filename(4) = 'DIC',
(PID.TID 0000.0001) >  frequency(5) = 86400.,
(PID.TID 0000.0001) >   fields(1,5) = 'DICTFLX ',
(PID.TID 0000.0001) >   filename(5) = 'DICTFLX',
(PID.TID 0000.0001) >  frequency(6) = 86400.,
(PID.TID 0000.0001) >   fields(1,6) = 'DICOFLX ',
(PID.TID 0000.0001) >   filename(6) = 'DICOFLX',
(PID.TID 0000.0001) >  frequency(7) = 86400.,
(PID.TID 0000.0001) >   fields(1,7) = 'DICCFLX ',
(PID.TID 0000.0001) >   filename(7) = 'DICCFLX',
(PID.TID 0000.0001) >  frequency(8) = 86400.,
(PID.TID 0000.0001) >   fields(1,8) = 'DICPCO2 ',
(PID.TID 0000.0001) >   filename(8) = 'DICPCO2',
(PID.TID 0000.0001) >  frequency(9) = 86400.,
(PID.TID 0000.0001) >   fields(1,9) = 'DICPHAV ',
(PID.TID 0000.0001) >   filename(9) = 'DICPHAV',
(PID.TID 0000.0001) >  frequency(10) = 2635200.,
(PID.TID 0000.0001) >   fields(1,10) = 'TRAC01  ',
(PID.TID 0000.0001) >   filename(10) = 'PO4',
(PID.TID 0000.0001) >  frequency(11) = 2635200.,
(PID.TID 0000.0001) >   fields(1,11) = 'TRAC02  ',
(PID.TID 0000.0001) >   filename(11) = 'NO3',
(PID.TID 0000.0001) >  frequency(12) = 2635200.,
(PID.TID 0000.0001) >   fields(1,12) = 'TRAC03  ',
(PID.TID 0000.0001) >   filename(12) = 'FeT',
(PID.TID 0000.0001) >  frequency(13) = 2635200.,
(PID.TID 0000.0001) >   fields(1,13) = 'TRAC04  ',
(PID.TID 0000.0001) >   filename(13) = 'SiO2',
(PID.TID 0000.0001) >  frequency(14) = 2635200.,
(PID.TID 0000.0001) >   fields(1,14) = 'TRAC05  ',
(PID.TID 0000.0001) >   filename(14) = 'DOP',
(PID.TID 0000.0001) >  frequency(15) = 2635200.,
(PID.TID 0000.0001) >   fields(1,15) = 'TRAC06  ',
(PID.TID 0000.0001) >   filename(15) = 'DON',
(PID.TID 0000.0001) >  frequency(16) = 2635200.,
(PID.TID 0000.0001) >   fields(1,16) = 'TRAC07  ',
(PID.TID 0000.0001) >   filename(16) = 'DOFe',
(PID.TID 0000.0001) >  frequency(17) = 2635200.,
(PID.TID 0000.0001) >   fields(1,17) = 'TRAC08  ',
(PID.TID 0000.0001) >   filename(17) = 'ZOO1P',
(PID.TID 0000.0001) >  frequency(18) = 2635200.,
(PID.TID 0000.0001) >   fields(1,18) = 'TRAC09  ',
(PID.TID 0000.0001) >   filename(18) = 'ZOO1N',
(PID.TID 0000.0001) >  frequency(19) = 2635200.,
(PID.TID 0000.0001) >   fields(1,19) = 'TRAC10  ',
(PID.TID 0000.0001) >   filename(19) = 'ZOO1Fe',
(PID.TID 0000.0001) >  frequency(20) = 2635200.,
(PID.TID 0000.0001) >   fields(1,20) = 'TRAC11  ',
(PID.TID 0000.0001) >   filename(20) = 'ZOO1Si',
(PID.TID 0000.0001) >  frequency(21) = 2635200.,
(PID.TID 0000.0001) >   fields(1,21) = 'TRAC12  ',
(PID.TID 0000.0001) >   filename(21) = 'ZOO2P',
(PID.TID 0000.0001) >  frequency(22) = 2635200.,
(PID.TID 0000.0001) >   fields(1,22) = 'TRAC13  ',
(PID.TID 0000.0001) >   filename(22) = 'ZOO2N',
(PID.TID 0000.0001) >  frequency(23) = 2635200.,
(PID.TID 0000.0001) >   fields(1,23) = 'TRAC14  ',
(PID.TID 0000.0001) >   filename(23) = 'ZOO2Fe',
(PID.TID 0000.0001) >  frequency(24) = 2635200.,
(PID.TID 0000.0001) >   fields(1,24) = 'TRAC15  ',
(PID.TID 0000.0001) >   filename(24) = 'ZOO2Si',
(PID.TID 0000.0001) >  frequency(25) = 2635200.,
(PID.TID 0000.0001) >   fields(1,25) = 'TRAC16  ',
(PID.TID 0000.0001) >   filename(25) = 'POP',
(PID.TID 0000.0001) >  frequency(26) = 2635200.,
(PID.TID 0000.0001) >   fields(1,26) = 'TRAC17  ',
(PID.TID 0000.0001) >   filename(26) = 'PON',
(PID.TID 0000.0001) >  frequency(27) = 2635200.,
(PID.TID 0000.0001) >   fields(1,27) = 'TRAC18  ',
(PID.TID 0000.0001) >   filename(27) = 'POFe',
(PID.TID 0000.0001) >  frequency(28) = 2635200.,
(PID.TID 0000.0001) >   fields(1,28) = 'TRAC19  ',
(PID.TID 0000.0001) >   filename(28) = 'POSi',
(PID.TID 0000.0001) >  frequency(29) = 2635200.,
(PID.TID 0000.0001) >   fields(1,29) = 'TRAC20  ',
(PID.TID 0000.0001) >   filename(29) = 'NH4',
(PID.TID 0000.0001) >  frequency(30) = 2635200.,
(PID.TID 0000.0001) >   fields(1,30) = 'TRAC21  ',
(PID.TID 0000.0001) >   filename(30) = 'NO2',
(PID.TID 0000.0001) >  frequency(31) = 2635200.,
(PID.TID 0000.0001) >   fields(1,31) = 'TRAC22  ',
(PID.TID 0000.0001) >   filename(31) = 'Phy01',
(PID.TID 0000.0001) >  frequency(32) = 2635200.,
(PID.TID 0000.0001) >   fields(1,32) = 'TRAC23  ',
(PID.TID 0000.0001) >   filename(32) = 'Phy02',
(PID.TID 0000.0001) >  frequency(33) = 2635200.,
(PID.TID 0000.0001) >   fields(1,33) = 'TRAC24  ',
(PID.TID 0000.0001) >   filename(33) = 'Phy03',
(PID.TID 0000.0001) >  frequency(34) = 2635200.,
(PID.TID 0000.0001) >   fields(1,34) = 'TRAC25  ',
(PID.TID 0000.0001) >   filename(34) = 'Phy04',
(PID.TID 0000.0001) >  frequency(35) = 2635200.,
(PID.TID 0000.0001) >   fields(1,35) = 'TRAC26  ',
(PID.TID 0000.0001) >   filename(35) = 'Phy05',
(PID.TID 0000.0001) >  frequency(36) = 2635200.,
(PID.TID 0000.0001) >   fields(1,36) = 'TRAC33  ',
(PID.TID 0000.0001) >   filename(36) = 'DOC',
(PID.TID 0000.0001) >  frequency(37) = 2635200.,
(PID.TID 0000.0001) >   fields(1,37) = 'TRAC34  ',
(PID.TID 0000.0001) >   filename(37) = 'POC',
(PID.TID 0000.0001) >  frequency(38) = 2635200.,
(PID.TID 0000.0001) >   fields(1,38) = 'TRAC35  ',
(PID.TID 0000.0001) >   filename(38) = 'PIC',
(PID.TID 0000.0001) >  frequency(39) = 2635200.,
(PID.TID 0000.0001) >   fields(1,39) = 'TRAC36  ',
(PID.TID 0000.0001) >   filename(39) = 'ALK',
(PID.TID 0000.0001) >  frequency(40) = 2635200.,
(PID.TID 0000.0001) >   fields(1,40) = 'TRAC37  ',
(PID.TID 0000.0001) >   filename(40) = 'O2',
(PID.TID 0000.0001) >  frequency(41) = 2635200.,
(PID.TID 0000.0001) >   fields(1,41) = 'TRAC38  ',
(PID.TID 0000.0001) >   filename(41) = 'ZOOC1',
(PID.TID 0000.0001) >  frequency(42) = 2635200.,
(PID.TID 0000.0001) >   fields(1,42) = 'TRAC39  ',
(PID.TID 0000.0001) >   filename(42) = 'ZOOC2',
(PID.TID 0000.0001) >  frequency(43) = 2635200.,
(PID.TID 0000.0001) >   fields(1,43) = 'TRAC27  ',
(PID.TID 0000.0001) >   filename(43) = 'CHL1',
(PID.TID 0000.0001) >  frequency(44) = 2635200.,
(PID.TID 0000.0001) >   fields(1,44) = 'TRAC28  ',
(PID.TID 0000.0001) >   filename(44) = 'CHL2',
(PID.TID 0000.0001) >  frequency(45) = 2635200.,
(PID.TID 0000.0001) >   fields(1,45) = 'TRAC29  ',
(PID.TID 0000.0001) >   filename(45) = 'CHL3',
(PID.TID 0000.0001) >  frequency(46) = 2635200.,
(PID.TID 0000.0001) >   fields(1,46) = 'TRAC30  ',
(PID.TID 0000.0001) >   filename(46) = 'CHL4',
(PID.TID 0000.0001) >  frequency(47) = 2635200.,
(PID.TID 0000.0001) >   fields(1,47) = 'TRAC31  ',
(PID.TID 0000.0001) >   filename(47) = 'CHL5',
(PID.TID 0000.0001) >  frequency(48) = 86400.,
(PID.TID 0000.0001) >   fields(1,48) = 'EXFwspee ',
(PID.TID 0000.0001) >   filename(48) = 'EXFwspee',
(PID.TID 0000.0001) >  frequency(49)  = 2635200.,
(PID.TID 0000.0001) >   fields(1,49)  = 'PAR    ',
(PID.TID 0000.0001) >   filename(49)  = 'PAR',
(PID.TID 0000.0001) >  frequency(50)  = 2635200.,
(PID.TID 0000.0001) >   fields(1,50)  = 'PP',
(PID.TID 0000.0001) >   filename(50)  = 'PP',
(PID.TID 0000.0001) >  frequency(51) = 2635200.,
(PID.TID 0000.0001) >   fields(1,51) = 'SIarea ',
(PID.TID 0000.0001) >   filename(51) = 'SIarea_month',
(PID.TID 0000.0001) >  frequency(52) = 2635200.,
(PID.TID 0000.0001) >   fields(1,52) = 'SIheff ',
(PID.TID 0000.0001) >   filename(52) = 'SIheff_month',
(PID.TID 0000.0001) >  frequency(53) = 2635200.,
(PID.TID 0000.0001) >   fields(1,53) = 'EXFapco2 ',
(PID.TID 0000.0001) >   filename(53) = 'EXFapco2_month',
(PID.TID 0000.0001) >  frequency(54) = -2535200.,
(PID.TID 0000.0001) >   fields(1,54) = 'EXFapco2 ',
(PID.TID 0000.0001) >   timePhase(54) = 0.,
(PID.TID 0000.0001) >   filename(54) = 'EXFapco2_snap',
(PID.TID 0000.0001) >
(PID.TID 0000.0001) >  frequency(55) = 10800.,
(PID.TID 0000.0001) >   fields(1,55) = 'DICCFLX ',
(PID.TID 0000.0001) >   filename(55) = 'DICCFLX_3hrly',
(PID.TID 0000.0001) >  frequency(56) = 2635200.,
(PID.TID 0000.0001) >   fields(1,56) = 'DICFGCO2',
(PID.TID 0000.0001) >   filename(56) = 'DICFGCO2',
(PID.TID 0000.0001) >  frequency(57) = 2635200.,
(PID.TID 0000.0001) >   fields(1,57) = 'UE_VEL_C',
(PID.TID 0000.0001) >   filename(57) = 'UE_VEL_C',
(PID.TID 0000.0001) >  frequency(58) = 2635200.,
(PID.TID 0000.0001) >   fields(1,58) = 'VN_VEL_C',
(PID.TID 0000.0001) >   filename(58) = 'VN_VEL_C',
(PID.TID 0000.0001) >  frequency(59) = 2635200.,
(PID.TID 0000.0001) >   fields(1,59) = 'WVEL     ',
(PID.TID 0000.0001) >   filename(59) = 'WVEL',
(PID.TID 0000.0001) >  frequency(60) = 2635200.,
(PID.TID 0000.0001) >   fields(1,60) = 'DICCFLX  ',
(PID.TID 0000.0001) >   filename(60) = 'DICCFLX_month',
(PID.TID 0000.0001) >  frequency(61) = 2635200.,
(PID.TID 0000.0001) >   fields(1,61) = 'DICPCO2  ',
(PID.TID 0000.0001) >   filename(61) = 'DICPCO2_month',
(PID.TID 0000.0001) >  frequency(62) = 2635200.,
(PID.TID 0000.0001) >   fields(1,62) = 'DICOFLX ',
(PID.TID 0000.0001) >   filename(62) = 'DICOFLX_month',
(PID.TID 0000.0001) > frequency(63) = 2635200.,
(PID.TID 0000.0001) >   fields(1,63) = 'oceQsw  ',
(PID.TID 0000.0001) >   filename(63) = 'oceQsw_month',
(PID.TID 0000.0001) > frequency(64) = 2635200.,
(PID.TID 0000.0001) >   fields(1,64) = 'oceQnet ',
(PID.TID 0000.0001) >   filename(64) = 'oceQnet_month',
(PID.TID 0000.0001) > frequency(65) = 2635200.,
(PID.TID 0000.0001) >   fields(1,65) = 'EXFwspee ',
(PID.TID 0000.0001) >   filename(65) = 'EXFwspee_month',
(PID.TID 0000.0001) >
(PID.TID 0000.0001) > &
(PID.TID 0000.0001) >
(PID.TID 0000.0001) ># Parameter for Diagnostics of per level statistics:
(PID.TID 0000.0001) >#-----------------
(PID.TID 0000.0001) ># for each output-stream:
(PID.TID 0000.0001) >#  stat_fname(n) : prefix of the output file name (only 8.c long) for
(PID.TID 0000.0001) >#outp.stream n
(PID.TID 0000.0001) >#  stat_freq(n):< 0 : write snap-shot output every |stat_freq| seconds
(PID.TID 0000.0001) >#               > 0 : write time-average output every stat_freq seconds
(PID.TID 0000.0001) >#  stat_phase(n)    : write at time = stat_phase + multiple of |stat_freq|
(PID.TID 0000.0001) >#  stat_region(:,n) : list of "regions" (default: 1 region only=global)
(PID.TID 0000.0001) >#  stat_fields(:,n) : list of diagnostics fields (8.c) (see
(PID.TID 0000.0001) >#"available_diagnostics.log"
(PID.TID 0000.0001) >#                 file for the list of all available diag. in this particular
(PID.TID 0000.0001) >#config)
(PID.TID 0000.0001) >#-----------------
(PID.TID 0000.0001) > &DIAG_STATIS_PARMS
(PID.TID 0000.0001) >#- an example just to check the agreement with MONITOR output:
(PID.TID 0000.0001) >#stat_fields(1,1)= 'ETAN    ','UVEL    ','VVEL    ','WVEL    ', 'THETA   ',
(PID.TID 0000.0001) >#   stat_fname(1)= 'dynStDiag',
(PID.TID 0000.0001) >#    stat_freq(1)= -864000.,
(PID.TID 0000.0001) >#   stat_phase(1)= 0.,
(PID.TID 0000.0001) > &
(PID.TID 0000.0001) 
(PID.TID 0000.0001) S/R DIAGNOSTICS_READPARMS, read namelist "diagnostics_list": start
(PID.TID 0000.0001) S/R DIAGNOSTICS_READPARMS, read namelist "diagnostics_list": OK
(PID.TID 0000.0001) S/R DIAGNOSTICS_READPARMS, read namelist "DIAG_STATIS_PARMS": start
(PID.TID 0000.0001) S/R DIAGNOSTICS_READPARMS, read namelist "DIAG_STATIS_PARMS": OK
(PID.TID 0000.0001)  DIAGNOSTICS_READPARMS: global parameter summary:
(PID.TID 0000.0001)  dumpAtLast = /* always write time-ave diags at the end */
(PID.TID 0000.0001)                   F
(PID.TID 0000.0001)     ;
(PID.TID 0000.0001)  diag_mnc =   /* write NetCDF output files */
(PID.TID 0000.0001)                   F
(PID.TID 0000.0001)     ;
(PID.TID 0000.0001)  useMissingValue = /* put MissingValue where mask = 0 */
(PID.TID 0000.0001)                   F
(PID.TID 0000.0001)     ;
(PID.TID 0000.0001)  diagCG_maxIters = /* max number of iters in diag_cg2d */
(PID.TID 0000.0001)                     300
(PID.TID 0000.0001)     ;
(PID.TID 0000.0001)  diagCG_resTarget = /* residual target for diag_cg2d */
(PID.TID 0000.0001)                 1.000000000000000E-07
(PID.TID 0000.0001)     ;
(PID.TID 0000.0001)  diagCG_pcOffDFac = /* preconditioner off-diagonal factor */
(PID.TID 0000.0001)                 9.611687812379854E-01
(PID.TID 0000.0001)     ;
(PID.TID 0000.0001) -----------------------------------------------------
(PID.TID 0000.0001)  DIAGNOSTICS_READPARMS: active diagnostics summary:
(PID.TID 0000.0001) -----------------------------------------------------
(PID.TID 0000.0001) Creating Output Stream: ETAN_snap
(PID.TID 0000.0001) Output Frequency:   -2635200.000000 ; Phase:           0.000000
[...]
(PID.TID 0000.0001) %MON trcstat_ptracer24_mean       =   4.3751351206272E-05
(PID.TID 0000.0001) %MON trcstat_ptracer24_sd         =   6.3529482093482E-04
(PID.TID 0000.0001) %MON trcstat_ptracer24_del2       =   1.2034544796893E-07
(PID.TID 0000.0001) %MON trcstat_ptracer25_max        =   3.4351201818562E-03
(PID.TID 0000.0001) %MON trcstat_ptracer25_min        =  -1.2268443305036E-03
(PID.TID 0000.0001) %MON trcstat_ptracer25_mean       =   7.7421462062720E-08
(PID.TID 0000.0001) %MON trcstat_ptracer25_sd         =   1.2177703848251E-05
(PID.TID 0000.0001) %MON trcstat_ptracer25_del2       =   1.2492201993041E-09
(PID.TID 0000.0001) %MON trcstat_ptracer26_max        =   2.7917710166375E-02
(PID.TID 0000.0001) %MON trcstat_ptracer26_min        =  -4.7717362904197E-03
(PID.TID 0000.0001) %MON trcstat_ptracer26_mean       =   9.8232432493866E-05
(PID.TID 0000.0001) %MON trcstat_ptracer26_sd         =   8.8271423675491E-04
(PID.TID 0000.0001) %MON trcstat_ptracer26_del2       =   5.3391458651891E-08
(PID.TID 0000.0001) %MON trcstat_ptracer27_max        =   3.0597470915807E+01
(PID.TID 0000.0001) %MON trcstat_ptracer27_min        =  -1.3824103694554E+00
(PID.TID 0000.0001) %MON trcstat_ptracer27_mean       =   4.3810891904117E-03
(PID.TID 0000.0001) %MON trcstat_ptracer27_sd         =   6.3008687109191E-02
(PID.TID 0000.0001) %MON trcstat_ptracer27_del2       =   1.1812007367916E-05
(PID.TID 0000.0001) %MON trcstat_ptracer28_max        =   8.5951752055043E+01
(PID.TID 0000.0001) %MON trcstat_ptracer28_min        =  -1.1639163915503E+00
(PID.TID 0000.0001) %MON trcstat_ptracer28_mean       =   3.0959125898657E-03
(PID.TID 0000.0001) %MON trcstat_ptracer28_sd         =   9.7603387987415E-02
(PID.TID 0000.0001) %MON trcstat_ptracer28_del2       =   1.2922572510908E-05
(PID.TID 0000.0001) %MON trcstat_ptracer29_max        =   4.6195412819821E+01
(PID.TID 0000.0001) %MON trcstat_ptracer29_min        =  -4.7308120908724E-01
(PID.TID 0000.0001) %MON trcstat_ptracer29_mean       =   5.3742523178937E-04
(PID.TID 0000.0001) %MON trcstat_ptracer29_sd         =   1.3188522786064E-02
(PID.TID 0000.0001) %MON trcstat_ptracer29_del2       =   7.5475633476430E-06
(PID.TID 0000.0001) %MON trcstat_ptracer30_max        =   1.1091290612905E-02
(PID.TID 0000.0001) %MON trcstat_ptracer30_min        =  -7.0090264061227E-03
(PID.TID 0000.0001) %MON trcstat_ptracer30_mean       =   2.7530500989204E-07
(PID.TID 0000.0001) %MON trcstat_ptracer30_sd         =   5.1246008123180E-05
(PID.TID 0000.0001) %MON trcstat_ptracer30_del2       =   4.7015813905709E-09
(PID.TID 0000.0001) %MON trcstat_ptracer31_max        =   3.8569961595466E+02
(PID.TID 0000.0001) %MON trcstat_ptracer31_min        =  -8.2172376644009E-01
(PID.TID 0000.0001) %MON trcstat_ptracer31_mean       =   1.4288803480008E-01
(PID.TID 0000.0001) %MON trcstat_ptracer31_sd         =   4.0906872332279E+00
(PID.TID 0000.0001) %MON trcstat_ptracer31_del2       =   1.0416373231147E-04
(PID.TID 0000.0001) %MON trcstat_ptracer32_max        =   2.5152414130576E+03
(PID.TID 0000.0001) %MON trcstat_ptracer32_min        =   1.3961339822167E+03
(PID.TID 0000.0001) %MON trcstat_ptracer32_mean       =   2.3369472448242E+03
(PID.TID 0000.0001) %MON trcstat_ptracer32_sd         =   8.6332499437251E+01
(PID.TID 0000.0001) %MON trcstat_ptracer32_del2       =   1.3327910632024E-03
(PID.TID 0000.0001) %MON trcstat_ptracer33_max        =   1.0170349348117E+02
(PID.TID 0000.0001) %MON trcstat_ptracer33_min        =  -1.0472840102115E+01
(PID.TID 0000.0001) %MON trcstat_ptracer33_mean       =   7.1904417052094E-01
(PID.TID 0000.0001) %MON trcstat_ptracer33_sd         =   4.0419844980913E+00
(PID.TID 0000.0001) %MON trcstat_ptracer33_del2       =   1.8677485703749E-04
(PID.TID 0000.0001) %MON trcstat_ptracer34_max        =   7.2506017860939E+02
(PID.TID 0000.0001) %MON trcstat_ptracer34_min        =  -7.0559314188618E-01
(PID.TID 0000.0001) %MON trcstat_ptracer34_mean       =   1.5697409637342E-01
(PID.TID 0000.0001) %MON trcstat_ptracer34_sd         =   4.2474219102167E-01
(PID.TID 0000.0001) %MON trcstat_ptracer34_del2       =   1.8566725601771E-04
(PID.TID 0000.0001) %MON trcstat_ptracer35_max        =   1.3146794932814E+02
(PID.TID 0000.0001) %MON trcstat_ptracer35_min        =  -6.6380323797950E-02
(PID.TID 0000.0001) %MON trcstat_ptracer35_mean       =   1.4825308057058E-02
(PID.TID 0000.0001) %MON trcstat_ptracer35_sd         =   6.6649974578911E-02
(PID.TID 0000.0001) %MON trcstat_ptracer35_del2       =   2.9578115906095E-05
(PID.TID 0000.0001) %MON trcstat_ptracer36_max        =   2.7512681517896E+03
(PID.TID 0000.0001) %MON trcstat_ptracer36_min        =   1.3864975199265E+03
(PID.TID 0000.0001) %MON trcstat_ptracer36_mean       =   2.4479561398165E+03
(PID.TID 0000.0001) %MON trcstat_ptracer36_sd         =   5.6907504879009E+01
(PID.TID 0000.0001) %MON trcstat_ptracer36_del2       =   9.3690685235042E-04
(PID.TID 0000.0001) %MON trcstat_ptracer37_max        =   4.8907930449590E+02
(PID.TID 0000.0001) %MON trcstat_ptracer37_min        =  -8.8619000482165E+01
(PID.TID 0000.0001) %MON trcstat_ptracer37_mean       =   1.7828529664123E+02
(PID.TID 0000.0001) %MON trcstat_ptracer37_sd         =   6.6688852365799E+01
(PID.TID 0000.0001) %MON trcstat_ptracer37_del2       =   1.3988524090294E-03
(PID.TID 0000.0001) %MON trcstat_ptracer38_max        =   6.8266173865215E+00
(PID.TID 0000.0001) %MON trcstat_ptracer38_min        =  -1.3660210753055E+00
(PID.TID 0000.0001) %MON trcstat_ptracer38_mean       =   4.1688482493248E-03
(PID.TID 0000.0001) %MON trcstat_ptracer38_sd         =   6.4207977960162E-02
(PID.TID 0000.0001) %MON trcstat_ptracer38_del2       =   5.1008386334331E-06
(PID.TID 0000.0001) %MON trcstat_ptracer39_max        =   2.6781970264425E+01
(PID.TID 0000.0001) %MON trcstat_ptracer39_min        =  -4.7292830884202E+00
(PID.TID 0000.0001) %MON trcstat_ptracer39_mean       =   8.9237948718384E-03
(PID.TID 0000.0001) %MON trcstat_ptracer39_sd         =   1.5860721902263E-01
(PID.TID 0000.0001) %MON trcstat_ptracer39_del2       =   1.7582492037615E-05
(PID.TID 0000.0001) // =======================================================
(PID.TID 0000.0001) // End MONITOR ptracers field statistics
(PID.TID 0000.0001) // =======================================================
(PID.TID 0000.0001) %CHECKPOINT         5 ckptA
(PID.TID 0000.0001)   Seconds in section "ALL                    [THE_MODEL_MAIN]":
(PID.TID 0000.0001)           User time:   430.698802113533
(PID.TID 0000.0001)         System time:  0.000000000000000E+000
(PID.TID 0000.0001)     Wall clock time:   560.562842130661
(PID.TID 0000.0001)          No. starts:           1
(PID.TID 0000.0001)           No. stops:           1
(PID.TID 0000.0001)   Seconds in section "INITIALISE_FIXED       [THE_MODEL_MAIN]":
(PID.TID 0000.0001)           User time:   42.1337119340897
(PID.TID 0000.0001)         System time:  0.000000000000000E+000
(PID.TID 0000.0001)     Wall clock time:   129.063387870789
(PID.TID 0000.0001)          No. starts:           1
(PID.TID 0000.0001)           No. stops:           1
(PID.TID 0000.0001)   Seconds in section "THE_MAIN_LOOP          [THE_MODEL_MAIN]":
(PID.TID 0000.0001)           User time:   388.565074920654
(PID.TID 0000.0001)         System time:  0.000000000000000E+000
(PID.TID 0000.0001)     Wall clock time:   431.499420881271
(PID.TID 0000.0001)          No. starts:           1
(PID.TID 0000.0001)           No. stops:           1
(PID.TID 0000.0001)   Seconds in section "INITIALISE_VARIA    [THE_MAIN_LOOP]":
(PID.TID 0000.0001)           User time:   267.227657318115
(PID.TID 0000.0001)         System time:  0.000000000000000E+000
(PID.TID 0000.0001)     Wall clock time:   296.008738994598
(PID.TID 0000.0001)          No. starts:           1
(PID.TID 0000.0001)           No. stops:           1
(PID.TID 0000.0001)   Seconds in section "MAIN LOOP           [THE_MAIN_LOOP]":
(PID.TID 0000.0001)           User time:   121.337402343750
(PID.TID 0000.0001)         System time:  0.000000000000000E+000
(PID.TID 0000.0001)     Wall clock time:   135.490657091141
(PID.TID 0000.0001)          No. starts:           1
(PID.TID 0000.0001)           No. stops:           1
(PID.TID 0000.0001)   Seconds in section "MAIN_DO_LOOP        [THE_MAIN_LOOP]":
(PID.TID 0000.0001)           User time:   121.337371826172
(PID.TID 0000.0001)         System time:  0.000000000000000E+000
(PID.TID 0000.0001)     Wall clock time:   135.490628957748
(PID.TID 0000.0001)          No. starts:           4
(PID.TID 0000.0001)           No. stops:           4
(PID.TID 0000.0001)   Seconds in section "FORWARD_STEP        [MAIN_DO_LOOP]":
(PID.TID 0000.0001)           User time:   121.337341308594
(PID.TID 0000.0001)         System time:  0.000000000000000E+000
(PID.TID 0000.0001)     Wall clock time:   135.490582942963
(PID.TID 0000.0001)          No. starts:           4
(PID.TID 0000.0001)           No. stops:           4
(PID.TID 0000.0001)   Seconds in section "DO_STATEVARS_DIAGS  [FORWARD_STEP]":
(PID.TID 0000.0001)           User time:  0.148071289062500
(PID.TID 0000.0001)         System time:  0.000000000000000E+000
(PID.TID 0000.0001)     Wall clock time:  0.148343086242676
(PID.TID 0000.0001)          No. starts:          12
(PID.TID 0000.0001)           No. stops:          12
(PID.TID 0000.0001)   Seconds in section "LOAD_FIELDS_DRIVER  [FORWARD_STEP]":
(PID.TID 0000.0001)           User time:  0.774475097656250
(PID.TID 0000.0001)         System time:  0.000000000000000E+000
(PID.TID 0000.0001)     Wall clock time:  0.922930002212524
(PID.TID 0000.0001)          No. starts:           4
(PID.TID 0000.0001)           No. stops:           4
(PID.TID 0000.0001)   Seconds in section "EXF_GETFORCING     [LOAD_FLDS_DRIVER]":
(PID.TID 0000.0001)           User time:  0.163391113281250
(PID.TID 0000.0001)         System time:  0.000000000000000E+000
(PID.TID 0000.0001)     Wall clock time:  0.185501098632812
(PID.TID 0000.0001)          No. starts:           4
(PID.TID 0000.0001)           No. stops:           4
(PID.TID 0000.0001)   Seconds in section "EXTERNAL_FLDS_LOAD [LOAD_FLDS_DRIVER]":
(PID.TID 0000.0001)           User time:  6.103515625000000E-005
(PID.TID 0000.0001)         System time:  0.000000000000000E+000
(PID.TID 0000.0001)     Wall clock time:  6.222724914550781E-005
(PID.TID 0000.0001)          No. starts:           4
(PID.TID 0000.0001)           No. stops:           4
(PID.TID 0000.0001)   Seconds in section "CTRL_MAP_FORCING  [FORWARD_STEP]":
(PID.TID 0000.0001)           User time:  7.141113281250000E-003
(PID.TID 0000.0001)         System time:  0.000000000000000E+000
(PID.TID 0000.0001)     Wall clock time:  7.152080535888672E-003
(PID.TID 0000.0001)          No. starts:           4
(PID.TID 0000.0001)           No. stops:           4
(PID.TID 0000.0001)   Seconds in section "DO_ATMOSPHERIC_PHYS [FORWARD_STEP]":
(PID.TID 0000.0001)           User time:  0.000000000000000E+000
(PID.TID 0000.0001)         System time:  0.000000000000000E+000
(PID.TID 0000.0001)     Wall clock time:  3.099441528320312E-005
(PID.TID 0000.0001)          No. starts:           4
(PID.TID 0000.0001)           No. stops:           4
(PID.TID 0000.0001)   Seconds in section "DO_OCEANIC_PHYS     [FORWARD_STEP]":
(PID.TID 0000.0001)           User time:  0.591217041015625
(PID.TID 0000.0001)         System time:  0.000000000000000E+000
(PID.TID 0000.0001)     Wall clock time:  0.599903345108032
(PID.TID 0000.0001)          No. starts:           4
(PID.TID 0000.0001)           No. stops:           4
(PID.TID 0000.0001)   Seconds in section "SEAICE_MODEL    [DO_OCEANIC_PHYS]":
(PID.TID 0000.0001)           User time:  0.227386474609375
(PID.TID 0000.0001)         System time:  0.000000000000000E+000
(PID.TID 0000.0001)     Wall clock time:  0.227811098098755
(PID.TID 0000.0001)          No. starts:           4
(PID.TID 0000.0001)           No. stops:           4
(PID.TID 0000.0001)   Seconds in section "SEAICE_DYNSOLVER   [SEAICE_MODEL]":
(PID.TID 0000.0001)           User time:  0.213745117187500
(PID.TID 0000.0001)         System time:  0.000000000000000E+000
(PID.TID 0000.0001)     Wall clock time:  0.214054346084595
(PID.TID 0000.0001)          No. starts:           4
(PID.TID 0000.0001)           No. stops:           4
(PID.TID 0000.0001)   Seconds in section "GGL90_CALC [DO_OCEANIC_PHYS]":
(PID.TID 0000.0001)           User time:  0.127838134765625
(PID.TID 0000.0001)         System time:  0.000000000000000E+000
(PID.TID 0000.0001)     Wall clock time:  0.136003017425537
(PID.TID 0000.0001)          No. starts:           4
(PID.TID 0000.0001)           No. stops:           4
(PID.TID 0000.0001)   Seconds in section "GCHEM_CALC_TENDENCY [FORWARD_STEP]":
(PID.TID 0000.0001)           User time:  0.000000000000000E+000
(PID.TID 0000.0001)         System time:  0.000000000000000E+000
(PID.TID 0000.0001)     Wall clock time:  2.431869506835938E-005
(PID.TID 0000.0001)          No. starts:           4
(PID.TID 0000.0001)           No. stops:           4
(PID.TID 0000.0001)   Seconds in section "DYNAMICS            [FORWARD_STEP]":
(PID.TID 0000.0001)           User time:  0.459106445312500
(PID.TID 0000.0001)         System time:  0.000000000000000E+000
(PID.TID 0000.0001)     Wall clock time:  0.459270000457764
(PID.TID 0000.0001)          No. starts:           4
(PID.TID 0000.0001)           No. stops:           4
(PID.TID 0000.0001)   Seconds in section "UPDATE_R_STAR       [FORWARD_STEP]":
(PID.TID 0000.0001)           User time:  1.010131835937500E-002
(PID.TID 0000.0001)         System time:  0.000000000000000E+000
(PID.TID 0000.0001)     Wall clock time:  1.012206077575684E-002
(PID.TID 0000.0001)          No. starts:           4
(PID.TID 0000.0001)           No. stops:           4
(PID.TID 0000.0001)   Seconds in section "UPDATE_CG2D         [FORWARD_STEP]":
(PID.TID 0000.0001)           User time:  2.401733398437500E-002
(PID.TID 0000.0001)         System time:  0.000000000000000E+000
(PID.TID 0000.0001)     Wall clock time:  2.413725852966309E-002
(PID.TID 0000.0001)          No. starts:           4
(PID.TID 0000.0001)           No. stops:           4
(PID.TID 0000.0001)   Seconds in section "SOLVE_FOR_PRESSURE  [FORWARD_STEP]":
(PID.TID 0000.0001)           User time:  0.189575195312500
(PID.TID 0000.0001)         System time:  0.000000000000000E+000
(PID.TID 0000.0001)     Wall clock time:  0.189723253250122
(PID.TID 0000.0001)          No. starts:           4
(PID.TID 0000.0001)           No. stops:           4
(PID.TID 0000.0001)   Seconds in section "MOM_CORRECTION_STEP [FORWARD_STEP]":
(PID.TID 0000.0001)           User time:  1.040649414062500E-002
(PID.TID 0000.0001)         System time:  0.000000000000000E+000
(PID.TID 0000.0001)     Wall clock time:  1.041388511657715E-002
(PID.TID 0000.0001)          No. starts:           4
(PID.TID 0000.0001)           No. stops:           4
(PID.TID 0000.0001)   Seconds in section "INTEGR_CONTINUITY   [FORWARD_STEP]":
(PID.TID 0000.0001)           User time:  1.843261718750000E-002
(PID.TID 0000.0001)         System time:  0.000000000000000E+000
(PID.TID 0000.0001)     Wall clock time:  1.861214637756348E-002
(PID.TID 0000.0001)          No. starts:           4
(PID.TID 0000.0001)           No. stops:           4
(PID.TID 0000.0001)   Seconds in section "CALC_R_STAR         [FORWARD_STEP]":
(PID.TID 0000.0001)           User time:  1.678466796875000E-003
(PID.TID 0000.0001)         System time:  0.000000000000000E+000
(PID.TID 0000.0001)     Wall clock time:  1.671075820922852E-003
(PID.TID 0000.0001)          No. starts:           4
(PID.TID 0000.0001)           No. stops:           4
(PID.TID 0000.0001)   Seconds in section "BLOCKING_EXCHANGES  [FORWARD_STEP]":
(PID.TID 0000.0001)           User time:   1.14916992187500
(PID.TID 0000.0001)         System time:  0.000000000000000E+000
(PID.TID 0000.0001)     Wall clock time:   1.14977979660034
(PID.TID 0000.0001)          No. starts:           8
(PID.TID 0000.0001)           No. stops:           8
(PID.TID 0000.0001)   Seconds in section "THERMODYNAMICS      [FORWARD_STEP]":
(PID.TID 0000.0001)           User time:   9.32788085937500
(PID.TID 0000.0001)         System time:  0.000000000000000E+000
(PID.TID 0000.0001)     Wall clock time:   9.33352804183960
(PID.TID 0000.0001)          No. starts:           4
(PID.TID 0000.0001)           No. stops:           4
(PID.TID 0000.0001)   Seconds in section "TRC_CORRECTION_STEP [FORWARD_STEP]":
(PID.TID 0000.0001)           User time:  3.051757812500000E-005
(PID.TID 0000.0001)         System time:  0.000000000000000E+000
(PID.TID 0000.0001)     Wall clock time:  2.479553222656250E-005
(PID.TID 0000.0001)          No. starts:           4
(PID.TID 0000.0001)           No. stops:           4
(PID.TID 0000.0001)   Seconds in section "GCHEM_FORCING_SEP  [FORWARD_STEP]":
(PID.TID 0000.0001)           User time:  5.477905273437500E-002
(PID.TID 0000.0001)         System time:  0.000000000000000E+000
(PID.TID 0000.0001)     Wall clock time:  0.197966098785400
(PID.TID 0000.0001)          No. starts:           4
(PID.TID 0000.0001)           No. stops:           4
(PID.TID 0000.0001)   Seconds in section "MONITOR             [FORWARD_STEP]":
(PID.TID 0000.0001)           User time:  0.176330566406250
(PID.TID 0000.0001)         System time:  0.000000000000000E+000
(PID.TID 0000.0001)     Wall clock time:  0.176352977752686
(PID.TID 0000.0001)          No. starts:           4
(PID.TID 0000.0001)           No. stops:           4
(PID.TID 0000.0001)   Seconds in section "DO_THE_MODEL_IO     [FORWARD_STEP]":
(PID.TID 0000.0001)           User time:  0.696502685546875
(PID.TID 0000.0001)         System time:  0.000000000000000E+000
(PID.TID 0000.0001)     Wall clock time:  0.696954965591431
(PID.TID 0000.0001)          No. starts:           4
(PID.TID 0000.0001)           No. stops:           4
(PID.TID 0000.0001)   Seconds in section "PTRACERS_RESET      [FORWARD_STEP]":
(PID.TID 0000.0001)           User time:  3.051757812500000E-005
(PID.TID 0000.0001)         System time:  0.000000000000000E+000
(PID.TID 0000.0001)     Wall clock time:  2.384185791015625E-005
(PID.TID 0000.0001)          No. starts:           4
(PID.TID 0000.0001)           No. stops:           4
(PID.TID 0000.0001)   Seconds in section "DO_WRITE_PICKUP     [FORWARD_STEP]":
(PID.TID 0000.0001)           User time:   107.697479248047
(PID.TID 0000.0001)         System time:  0.000000000000000E+000
(PID.TID 0000.0001)     Wall clock time:   121.542891263962
(PID.TID 0000.0001)          No. starts:           4
(PID.TID 0000.0001)           No. stops:           4
(PID.TID 0000.0001) // ======================================================
(PID.TID 0000.0001) // Tile <-> Tile communication statistics
(PID.TID 0000.0001) // ======================================================
(PID.TID 0000.0001) // o Tile number: 000001
(PID.TID 0000.0001) //         No. X exchanges =              0
(PID.TID 0000.0001) //            Max. X spins =              0
(PID.TID 0000.0001) //            Min. X spins =     1000000000
(PID.TID 0000.0001) //          Total. X spins =              0
(PID.TID 0000.0001) //            Avg. X spins =       0.00E+00
(PID.TID 0000.0001) //         No. Y exchanges =              0
(PID.TID 0000.0001) //            Max. Y spins =              0
(PID.TID 0000.0001) //            Min. Y spins =     1000000000
(PID.TID 0000.0001) //          Total. Y spins =              0
(PID.TID 0000.0001) //            Avg. Y spins =       0.00E+00
(PID.TID 0000.0001) // o Thread number: 000001
(PID.TID 0000.0001) //            No. barriers =         223774
(PID.TID 0000.0001) //      Max. barrier spins =              1
(PID.TID 0000.0001) //      Min. barrier spins =              1
(PID.TID 0000.0001) //     Total barrier spins =         223774
(PID.TID 0000.0001) //      Avg. barrier spins =       1.00E+00
PROGRAM MAIN: Execution ended Normally
