(PID.TID 0000.0001) 
(PID.TID 0000.0001) // ======================================================
(PID.TID 0000.0001) //                      MITgcm UV
(PID.TID 0000.0001) //                      =========
(PID.TID 0000.0001) // ======================================================
(PID.TID 0000.0001) // execution environment starting up...
(PID.TID 0000.0001) 
(PID.TID 0000.0001) // MITgcmUV version:  checkpoint67x
(PID.TID 0000.0001) // Build user:        dmenemen
(PID.TID 0000.0001) // Build host:        MT-406219
(PID.TID 0000.0001) // Build date:        Wed Nov 13 09:12:06 PST 2024
(PID.TID 0000.0001) 
(PID.TID 0000.0001) // =======================================================
(PID.TID 0000.0001) // Execution Environment parameter file "eedata"
(PID.TID 0000.0001) // =======================================================
(PID.TID 0000.0001) ># Example "eedata" file
(PID.TID 0000.0001) ># Lines beginning "#" are comments
(PID.TID 0000.0001) ># nTx - No. threads per process in X
(PID.TID 0000.0001) ># nTy - No. threads per process in Y
(PID.TID 0000.0001) > &EEPARMS
(PID.TID 0000.0001) > nTx=1,
(PID.TID 0000.0001) > nTy=1,
(PID.TID 0000.0001) > debugmode=.false.,
(PID.TID 0000.0001) > /
(PID.TID 0000.0001) ># Note: Some systems use & as the
(PID.TID 0000.0001) ># namelist terminator. Other systems
(PID.TID 0000.0001) ># use a / character (as shown here).
(PID.TID 0000.0001) 
(PID.TID 0000.0001) // =======================================================
(PID.TID 0000.0001) // Computational Grid Specification ( see files "SIZE.h" )
(PID.TID 0000.0001) //                                  ( and "eedata"       )
(PID.TID 0000.0001) // =======================================================
(PID.TID 0000.0001)      nPx =    2 ; /* No. processes in X */
(PID.TID 0000.0001)      nPy =    4 ; /* No. processes in Y */
(PID.TID 0000.0001)      nSx =    1 ; /* No. tiles in X per process */
(PID.TID 0000.0001)      nSy =    1 ; /* No. tiles in Y per process */
(PID.TID 0000.0001)      sNx =   32 ; /* Tile size in X */
(PID.TID 0000.0001)      sNy =   18 ; /* Tile size in Y */
(PID.TID 0000.0001)      OLx =    4 ; /* Tile overlap distance in X */
(PID.TID 0000.0001)      OLy =    4 ; /* Tile overlap distance in Y */
(PID.TID 0000.0001)      nTx =    1 ; /* No. threads in X per process */
(PID.TID 0000.0001)      nTy =    1 ; /* No. threads in Y per process */
(PID.TID 0000.0001)       Nr =   41 ; /* No. levels in the vertical   */
(PID.TID 0000.0001)       Nx =   64 ; /* Total domain size in X ( = nPx*nSx*sNx ) */
(PID.TID 0000.0001)       Ny =   72 ; /* Total domain size in Y ( = nPy*nSy*sNy ) */
(PID.TID 0000.0001)   nTiles =    1 ; /* Total no. tiles per process ( = nSx*nSy ) */
(PID.TID 0000.0001)   nProcs =    8 ; /* Total no. processes ( = nPx*nPy ) */
(PID.TID 0000.0001) nThreads =    1 ; /* Total no. threads per process ( = nTx*nTy ) */
(PID.TID 0000.0001) usingMPI =    T ; /* Flag used to control whether MPI is in use */
(PID.TID 0000.0001)                   /*  note: To execute a program with MPI calls */
(PID.TID 0000.0001)                   /*  it must be launched appropriately e.g     */
(PID.TID 0000.0001)                   /*  "mpirun -np 64 ......"                    */
(PID.TID 0000.0001) useCoupler=   F ; /* Flag used to control communications with   */
(PID.TID 0000.0001)                   /*  other model components, through a coupler */
(PID.TID 0000.0001) useNest2W_parent =    F ;/* Control 2-W Nesting comm */
(PID.TID 0000.0001) useNest2W_child  =    F ;/* Control 2-W Nesting comm */
(PID.TID 0000.0001) debugMode =    F ; /* print debug msg. (sequence of S/R calls)  */
(PID.TID 0000.0001) printMapIncludesZeros=    F ; /* print zeros in Std.Output maps */
(PID.TID 0000.0001) maxLengthPrt1D=   65 /* maxLength of 1D array printed to StdOut */
(PID.TID 0000.0001) 
(PID.TID 0000.0001) ======= Starting MPI parallel Run =========
(PID.TID 0000.0001)  My Processor Name (len:  9 ) = MT-406219
(PID.TID 0000.0001)  Located at (  0,  0) on processor grid (0:  1,0:  3)
(PID.TID 0000.0001)  Origin at  (     1,     1) on global grid (1:    64,1:    72)
(PID.TID 0000.0001)  North neighbor = processor 0001
(PID.TID 0000.0001)  South neighbor = processor 0003
(PID.TID 0000.0001)   East neighbor = processor 0004
(PID.TID 0000.0001)   West neighbor = processor 0004
(PID.TID 0000.0001) // ======================================================
(PID.TID 0000.0001) // Mapping of tiles to threads
(PID.TID 0000.0001) // ======================================================
(PID.TID 0000.0001) // -o- Thread   1, tiles (   1:   1,   1:   1)
(PID.TID 0000.0001) 
(PID.TID 0000.0001) // ======================================================
(PID.TID 0000.0001) // Tile <-> Tile connectvity table
(PID.TID 0000.0001) // ======================================================
(PID.TID 0000.0001) // Tile number: 000001 (process no. = 000000)
(PID.TID 0000.0001) //        WEST: Tile = 000002, Process = 000004, Comm = messages
(PID.TID 0000.0001) //                bi = 000001, bj = 000001
(PID.TID 0000.0001) //        EAST: Tile = 000002, Process = 000004, Comm = messages
(PID.TID 0000.0001) //                bi = 000001, bj = 000001
(PID.TID 0000.0001) //       SOUTH: Tile = 000007, Process = 000003, Comm = messages
(PID.TID 0000.0001) //                bi = 000001, bj = 000001
(PID.TID 0000.0001) //       NORTH: Tile = 000003, Process = 000001, Comm = messages
(PID.TID 0000.0001) //                bi = 000001, bj = 000001
(PID.TID 0000.0001) 
(PID.TID 0000.0001)  INI_PARMS: opening model parameter file "data"
(PID.TID 0000.0001)  OPEN_COPY_DATA_FILE: opening file data
(PID.TID 0000.0001) // =======================================================
(PID.TID 0000.0001) // Parameter file "data"
(PID.TID 0000.0001) // =======================================================
(PID.TID 0000.0001) ># ====================
(PID.TID 0000.0001) ># | Model parameters |
(PID.TID 0000.0001) ># ====================
(PID.TID 0000.0001) >#
(PID.TID 0000.0001) ># Continuous equation parameters
(PID.TID 0000.0001) > &PARM01
(PID.TID 0000.0001) > tRef           = 3*23.,3*22.,21.,2*20.,19.,2*18.,17.,2*16.,15.,14.,13.,
(PID.TID 0000.0001) >                  12.,11.,2*9.,8.,7.,2*6.,2*5.,3*4.,3*3.,4*2.,3*1.,
(PID.TID 0000.0001) > sRef           = 41*34.5,
(PID.TID 0000.0001) > no_slip_sides  = .TRUE.,
(PID.TID 0000.0001) > no_slip_bottom = .TRUE.,
(PID.TID 0000.0001) >#
(PID.TID 0000.0001) > viscAr=0.5E-4,
(PID.TID 0000.0001) >#
(PID.TID 0000.0001) > viscAh=1.E0,
(PID.TID 0000.0001) > viscAhGrid=1.E-2,
(PID.TID 0000.0001) >#
(PID.TID 0000.0001) > diffKhT=1.E1,
(PID.TID 0000.0001) > diffKhS=1.E1,
(PID.TID 0000.0001) >#
(PID.TID 0000.0001) > bottomDragQuadratic = 0.001,
(PID.TID 0000.0001) >#when using ggl90
(PID.TID 0000.0001) > ivdc_kappa=10.,
(PID.TID 0000.0001) > implicitDiffusion=.TRUE.,
(PID.TID 0000.0001) > implicitViscosity=.TRUE.,
(PID.TID 0000.0001) > viscC4Leith=1.5,
(PID.TID 0000.0001) > viscC4Leithd=1.5,
(PID.TID 0000.0001) > viscA4GridMax=0.5,
(PID.TID 0000.0001) > useAreaViscLength=.TRUE.,
(PID.TID 0000.0001) > useRealFreshWaterFlux=.TRUE.,
(PID.TID 0000.0001) > hFacMinDr=50.,
(PID.TID 0000.0001) > hFacMin=0.3,
(PID.TID 0000.0001) > hFacInf=0.1,
(PID.TID 0000.0001) > hFacSup=5.,
(PID.TID 0000.0001) > select_rStar=2,
(PID.TID 0000.0001) > nonlinFreeSurf=4,
(PID.TID 0000.0001) > gravity=9.81,
(PID.TID 0000.0001) > rhonil=1029.,
(PID.TID 0000.0001) > rhoConst=1029.,
(PID.TID 0000.0001) > rhoConstFresh=1000.,
(PID.TID 0000.0001) > convertFW2Salt=-1.,
(PID.TID 0000.0001) > eosType='JMD95Z',
(PID.TID 0000.0001) > implicitFreeSurface=.TRUE.,
(PID.TID 0000.0001) > exactConserv=.TRUE.,
(PID.TID 0000.0001) > useSingleCpuIO=.TRUE.,
(PID.TID 0000.0001) > tempAdvScheme=30,
(PID.TID 0000.0001) > saltAdvScheme=30,
(PID.TID 0000.0001) > tempVertAdvScheme=3,
(PID.TID 0000.0001) > saltVertAdvScheme=3,
(PID.TID 0000.0001) > tempImplVertAdv=.TRUE.,
(PID.TID 0000.0001) > saltImplVertAdv=.TRUE.,
(PID.TID 0000.0001) > staggerTimeStep=.TRUE.,
(PID.TID 0000.0001) > vectorInvariantMomentum=.TRUE.,
(PID.TID 0000.0001) > useJamartWetPoints=.TRUE.,
(PID.TID 0000.0001) > readBinaryPrec=32,
(PID.TID 0000.0001) > writeBinaryPrec=32,
(PID.TID 0000.0001) > debugLevel=-1,
(PID.TID 0000.0001) > /
(PID.TID 0000.0001) >
(PID.TID 0000.0001) ># Elliptic solver parameters
(PID.TID 0000.0001) > &PARM02
(PID.TID 0000.0001) > cg2dMaxIters=300,
(PID.TID 0000.0001) > cg2dTargetResWunit=1.E-12,
(PID.TID 0000.0001) > /
(PID.TID 0000.0001) >
(PID.TID 0000.0001) ># Time stepping parameters
(PID.TID 0000.0001) > &PARM03
(PID.TID 0000.0001) > nIter0=0,
(PID.TID 0000.0001) > endtime=86400,
(PID.TID 0000.0001) > forcing_In_AB=.FALSE.,
(PID.TID 0000.0001) > momDissip_In_AB=.FALSE.,
(PID.TID 0000.0001) > deltaT=1200.,
(PID.TID 0000.0001) >#when using ab3:
(PID.TID 0000.0001) > doAB_onGtGs=.FALSE.,
(PID.TID 0000.0001) > alph_AB=0.5,
(PID.TID 0000.0001) > beta_AB=0.281105,
(PID.TID 0000.0001) >#
(PID.TID 0000.0001) > pChkptFreq  =31536000.0,
(PID.TID 0000.0001) > monitorFreq = 43200.0,
(PID.TID 0000.0001) > dumpInitAndLast = .FALSE.,
(PID.TID 0000.0001) > pickupStrictlyMatch=.FALSE.,
(PID.TID 0000.0001) > /
(PID.TID 0000.0001) >
(PID.TID 0000.0001) ># Gridding parameters
(PID.TID 0000.0001) > &PARM04
(PID.TID 0000.0001) > delR =
(PID.TID 0000.0001) >     10.00, 10.00, 10.00, 10.00, 10.00, 10.00, 10.00, 10.01,
(PID.TID 0000.0001) >     10.03, 10.11, 10.32, 10.80, 11.76, 13.42, 16.04, 19.82, 24.85,
(PID.TID 0000.0001) >     31.10, 38.42, 46.50, 55.00, 63.50, 71.58, 78.90, 85.15, 90.18,
(PID.TID 0000.0001) >     93.96, 96.58, 98.25, 99.25,100.01,101.33,104.56,111.33,122.83,
(PID.TID 0000.0001) >     139.09,158.94,180.83,203.55,226.50,249.50,
(PID.TID 0000.0001) > usingSphericalPolarGrid=.TRUE.,
(PID.TID 0000.0001) > xgOrigin =   29.333333969116211,
(PID.TID 0000.0001) > ygOrigin =  9.827387809753418,
(PID.TID 0000.0001) > delX     = 64*0.333333,
(PID.TID 0000.0001) > delYfile = 'delYFile',
(PID.TID 0000.0001) > /
(PID.TID 0000.0001) >
(PID.TID 0000.0001) ># Input datasets
(PID.TID 0000.0001) > &PARM05
(PID.TID 0000.0001) > bathyFile       ='BATHY_64x72_RedSea',
(PID.TID 0000.0001) > hydrogThetaFile ='init/THETA_64x72x41.16-Jan-1992',
(PID.TID 0000.0001) > hydrogSaltFile  ='init/SALT_64x72x41.16-Jan-1992',
(PID.TID 0000.0001) > uVelInitFile    ='init/U_64x72x41.16-Jan-1992',
(PID.TID 0000.0001) > vVelInitFile    ='init/V_64x72x41.16-Jan-1992',
(PID.TID 0000.0001) > pSurfInitFile   ='init/ETAN_64x72.16-Jan-1992',
(PID.TID 0000.0001) > diffKrFile      ='era_xx_it42_v2/RedSea_64x72_diffkr',
(PID.TID 0000.0001) > /
(PID.TID 0000.0001) 
(PID.TID 0000.0001)  INI_PARMS ; starts to read PARM01
(PID.TID 0000.0001)  INI_PARMS ; read PARM01 : OK
(PID.TID 0000.0001)  INI_PARMS ; starts to read PARM02
(PID.TID 0000.0001)  INI_PARMS ; read PARM02 : OK
(PID.TID 0000.0001)  INI_PARMS ; starts to read PARM03
(PID.TID 0000.0001)  INI_PARMS ; read PARM03 : OK
(PID.TID 0000.0001)  INI_PARMS ; starts to read PARM04
(PID.TID 0000.0001)  INI_PARMS ; read PARM04 : OK
(PID.TID 0000.0001)  INI_PARMS ; starts to read PARM05
(PID.TID 0000.0001)  INI_PARMS ; read PARM05 : OK
(PID.TID 0000.0001)  INI_PARMS: finished reading file "data"
(PID.TID 0000.0001)  PACKAGES_BOOT: opening data.pkg
(PID.TID 0000.0001)  OPEN_COPY_DATA_FILE: opening file data.pkg
(PID.TID 0000.0001) // =======================================================
(PID.TID 0000.0001) // Parameter file "data.pkg"
(PID.TID 0000.0001) // =======================================================
(PID.TID 0000.0001) ># Packages
(PID.TID 0000.0001) > &PACKAGES
(PID.TID 0000.0001) > useCAL         = .TRUE.,
(PID.TID 0000.0001) > useDiagnostics = .TRUE.,
(PID.TID 0000.0001) > useEXF         = .TRUE.,
(PID.TID 0000.0001) > useGCHEM       = .TRUE.,
(PID.TID 0000.0001) > useGGL90       = .TRUE.,
(PID.TID 0000.0001) > useGMRedi      = .TRUE.,
(PID.TID 0000.0001) > useOBCS        = .TRUE.,
(PID.TID 0000.0001) > usePTRACERS    = .TRUE.,
(PID.TID 0000.0001) > /
(PID.TID 0000.0001) 
(PID.TID 0000.0001)  PACKAGES_BOOT: finished reading data.pkg
(PID.TID 0000.0001)  PACKAGES_BOOT: On/Off package Summary
 --------  pkgs with a standard "usePKG" On/Off switch in "data.pkg":  --------
 pkg/obcs                 compiled   and   used ( useOBCS                  = T )
 pkg/ggl90                compiled   and   used ( useGGL90                 = T )
 pkg/gmredi               compiled   and   used ( useGMRedi                = T )
 pkg/cal                  compiled   and   used ( useCAL                   = T )
 pkg/exf                  compiled   and   used ( useEXF                   = T )
 pkg/ptracers             compiled   and   used ( usePTRACERS              = T )
 pkg/gchem                compiled   and   used ( useGCHEM                 = T )
 pkg/diagnostics          compiled   and   used ( useDiagnostics           = T )
 -------- pkgs without standard "usePKG" On/Off switch in "data.pkg":  --------
 pkg/generic_advdiff      compiled   and   used ( useGAD                   = T )
 pkg/mom_common           compiled   and   used ( momStepping              = T )
 pkg/mom_vecinv           compiled   and   used ( +vectorInvariantMomentum = T )
 pkg/monitor              compiled   and   used ( monitorFreq > 0.         = T )
 pkg/debug                compiled but not used ( debugMode                = F )
 pkg/rw                   compiled   and   used
 pkg/mdsio                compiled   and   used
(PID.TID 0000.0001)  PACKAGES_BOOT: End of package Summary
(PID.TID 0000.0001) 
(PID.TID 0000.0001) CAL_READPARMS: opening data.cal
(PID.TID 0000.0001)  OPEN_COPY_DATA_FILE: opening file data.cal
(PID.TID 0000.0001) // =======================================================
(PID.TID 0000.0001) // Parameter file "data.cal"
(PID.TID 0000.0001) // =======================================================
(PID.TID 0000.0001) >#
(PID.TID 0000.0001) ># *******************
(PID.TID 0000.0001) ># Calendar Parameters
(PID.TID 0000.0001) ># *******************
(PID.TID 0000.0001) > &CAL_NML
(PID.TID 0000.0001) > TheCalendar='gregorian',
(PID.TID 0000.0001) > startDate_1=19920116,
(PID.TID 0000.0001) > startDate_2=000000,
(PID.TID 0000.0001) > calendarDumps = .TRUE.,
(PID.TID 0000.0001) > /
(PID.TID 0000.0001) 
(PID.TID 0000.0001) CAL_READPARMS: finished reading data.cal
(PID.TID 0000.0001) EXF_READPARMS: opening data.exf
(PID.TID 0000.0001)  OPEN_COPY_DATA_FILE: opening file data.exf
(PID.TID 0000.0001) // =======================================================
(PID.TID 0000.0001) // Parameter file "data.exf"
(PID.TID 0000.0001) // =======================================================
(PID.TID 0000.0001) ># *********************
(PID.TID 0000.0001) ># External Forcing Data
(PID.TID 0000.0001) ># *********************
(PID.TID 0000.0001) >#
(PID.TID 0000.0001) > &EXF_NML_01
(PID.TID 0000.0001) >  useAtmWind        = .TRUE.,
(PID.TID 0000.0001) ># TO COMBINE WITH ALLOW_ZENITH_ANGLE:
(PID.TID 0000.0001) >  exf_albedo        = 0.1,
(PID.TID 0000.0001) >  useExfZenIncoming = .TRUE.,
(PID.TID 0000.0001) >  select_ZenAlbedo  = 1,
(PID.TID 0000.0001) >#
(PID.TID 0000.0001) >  ocean_emissivity  = 0.97,
(PID.TID 0000.0001) >  ice_emissivity    = 0.95,
(PID.TID 0000.0001) >  snow_emissivity   = 0.95,
(PID.TID 0000.0001) >#
(PID.TID 0000.0001) >  exf_iprec         = 32,
(PID.TID 0000.0001) >  exf_yftype        = 'RL',
(PID.TID 0000.0001) >  useExfYearlyFields= .TRUE.,
(PID.TID 0000.0001) >  useExfCheckRange  = .FALSE.,
(PID.TID 0000.0001) > /
(PID.TID 0000.0001) >
(PID.TID 0000.0001) > &EXF_NML_02
(PID.TID 0000.0001) >  atempfile         = 'era_xx_it42_v2/RedSea_64x72_EXFatemp_6hourly',
(PID.TID 0000.0001) >  aqhfile           = 'era_xx_it42_v2/RedSea_64x72_EXFaqh_6hourly',
(PID.TID 0000.0001) >  precipfile        = 'era_xx_it42_v2/RedSea_64x72_EXFpreci_6hourly',
(PID.TID 0000.0001) >  runofffile        = 'era_xx_it42_v2/RedSea_64x72_Fekete_runoff',
(PID.TID 0000.0001) >  uwindfile         = 'era_xx_it42_v2/RedSea_64x72_EXFuwind_6hourly',
(PID.TID 0000.0001) >  vwindfile         = 'era_xx_it42_v2/RedSea_64x72_EXFvwind_6hourly',
(PID.TID 0000.0001) >  swdownfile        = 'era_xx_it42_v2/RedSea_64x72_EXFswdn_6hourly',
(PID.TID 0000.0001) >  lwdownfile        = 'era_xx_it42_v2/RedSea_64x72_EXFlwdn_6hourly',
(PID.TID 0000.0001) >  waterTypFile      = 'Jerlov_Kdclim12',
(PID.TID 0000.0001) >#
(PID.TID 0000.0001) >  atempstartdate1   = 19920101,
(PID.TID 0000.0001) >  atempstartdate2   = 000000,
(PID.TID 0000.0001) >  atempperiod       = 21600.0,
(PID.TID 0000.0001) >#
(PID.TID 0000.0001) >  aqhstartdate1     = 19920101,
(PID.TID 0000.0001) >  aqhstartdate2     = 000000,
(PID.TID 0000.0001) >  aqhperiod         = 21600.0,
(PID.TID 0000.0001) >#
(PID.TID 0000.0001) >  precipstartdate1  = 19920101,
(PID.TID 0000.0001) >  precipstartdate2  = 030000,
(PID.TID 0000.0001) >  precipperiod      = 21600.0,
(PID.TID 0000.0001) >#
(PID.TID 0000.0001) >  runoffperiod      = -12,
(PID.TID 0000.0001) >#
(PID.TID 0000.0001) >  uwindstartdate1   = 19920101,
(PID.TID 0000.0001) >  uwindstartdate2   = 000000,
(PID.TID 0000.0001) >  uwindperiod       = 21600.0,
(PID.TID 0000.0001) >#
(PID.TID 0000.0001) >  vwindstartdate1   = 19920101,
(PID.TID 0000.0001) >  vwindstartdate2   = 000000,
(PID.TID 0000.0001) >  vwindperiod       = 21600.0,
(PID.TID 0000.0001) >#
(PID.TID 0000.0001) >  swdownstartdate1  = 19920101,
(PID.TID 0000.0001) >  swdownstartdate2  = 030000,
(PID.TID 0000.0001) >  swdownperiod      = 21600.0,
(PID.TID 0000.0001) >#
(PID.TID 0000.0001) >  lwdownstartdate1  = 19920101,
(PID.TID 0000.0001) >  lwdownstartdate2  = 030000,
(PID.TID 0000.0001) >  lwdownperiod      = 21600.0,
(PID.TID 0000.0001) >#
(PID.TID 0000.0001) >  waterTypPeriod    = -12,
(PID.TID 0000.0001) > /
(PID.TID 0000.0001) >
(PID.TID 0000.0001) > &EXF_NML_03
(PID.TID 0000.0001) > /
(PID.TID 0000.0001) >
(PID.TID 0000.0001) > &EXF_NML_04
(PID.TID 0000.0001) >  atemp_interpMethod  = 0,
(PID.TID 0000.0001) >  aqh_interpMethod    = 0,
(PID.TID 0000.0001) >  precip_interpMethod = 0,
(PID.TID 0000.0001) >  runoff_interpMethod = 0,
(PID.TID 0000.0001) >  uwind_interpMethod  = 0,
(PID.TID 0000.0001) >  vwind_interpMethod  = 0,
(PID.TID 0000.0001) >  swdown_interpMethod = 0,
(PID.TID 0000.0001) >  lwdown_interpMethod = 0,
(PID.TID 0000.0001) >  waterTyp_interpMethod = 0,
(PID.TID 0000.0001) > /
(PID.TID 0000.0001) >
(PID.TID 0000.0001) > &EXF_NML_OBCS
(PID.TID 0000.0001) >  obcsEstartdate1   = 19920115,
(PID.TID 0000.0001) >  obcsEstartdate2   = 031519,
(PID.TID 0000.0001) >  obcsEperiod       = 2615438.0,
(PID.TID 0000.0001) >/
(PID.TID 0000.0001) 
(PID.TID 0000.0001) EXF_READPARMS: reading EXF_NML_01
(PID.TID 0000.0001) EXF_READPARMS: reading EXF_NML_02
(PID.TID 0000.0001) EXF_READPARMS: reading EXF_NML_03
(PID.TID 0000.0001) EXF_READPARMS: reading EXF_NML_04
(PID.TID 0000.0001) EXF_READPARMS: reading EXF_NML_OBCS
(PID.TID 0000.0001) EXF_READPARMS: finished reading data.exf
(PID.TID 0000.0001)  OBCS_READPARMS: opening data.obcs
(PID.TID 0000.0001)  OPEN_COPY_DATA_FILE: opening file data.obcs
(PID.TID 0000.0001) // =======================================================
(PID.TID 0000.0001) // Parameter file "data.obcs"
(PID.TID 0000.0001) // =======================================================
(PID.TID 0000.0001) ># ***************
(PID.TID 0000.0001) ># Open boundaries
(PID.TID 0000.0001) ># ***************
(PID.TID 0000.0001) > &OBCS_PARM01
(PID.TID 0000.0001) > OB_Ieast  =   72*-1,
(PID.TID 0000.0001) >#
(PID.TID 0000.0001) > useOBCSprescribe=.TRUE.,
(PID.TID 0000.0001) >#
(PID.TID 0000.0001) > OBEsFile='obcs/RedSea_64x72x41_SALT_East',
(PID.TID 0000.0001) > OBEtFile='obcs/RedSea_64x72x41_THETA_East',
(PID.TID 0000.0001) > OBEuFile='obcs/RedSea_64x72x41_U_East',
(PID.TID 0000.0001) > OBEvFile='obcs/RedSea_64x72x41_V_East',
(PID.TID 0000.0001) > OBEptrFile(1)='obcs/RedSea_64x72x41_DIC_East',
(PID.TID 0000.0001) > OBEptrFile(2)='obcs/RedSea_64x72x41_NO3_East',
(PID.TID 0000.0001) > OBEptrFile(3)='obcs/RedSea_64x72x41_NO2_East',
(PID.TID 0000.0001) > OBEptrFile(4)='obcs/RedSea_64x72x41_NH4_East',
(PID.TID 0000.0001) > OBEptrFile(5)='obcs/RedSea_64x72x41_PO4_East',
(PID.TID 0000.0001) > OBEptrFile(6)='obcs/RedSea_64x72x41_FeT_East',
(PID.TID 0000.0001) > OBEptrFile(7)='obcs/RedSea_64x72x41_SiO2_East',
(PID.TID 0000.0001) > OBEptrFile(8)='obcs/RedSea_64x72x41_DOC_East',
(PID.TID 0000.0001) > OBEptrFile(9)='obcs/RedSea_64x72x41_DON_East',
(PID.TID 0000.0001) > OBEptrFile(10)='obcs/RedSea_64x72x41_DOP_East',
(PID.TID 0000.0001) > OBEptrFile(11)='obcs/RedSea_64x72x41_DOFe_East',
(PID.TID 0000.0001) > OBEptrFile(12)='obcs/RedSea_64x72x41_POC_East',
(PID.TID 0000.0001) > OBEptrFile(13)='obcs/RedSea_64x72x41_PON_East',
(PID.TID 0000.0001) > OBEptrFile(14)='obcs/RedSea_64x72x41_POP_East',
(PID.TID 0000.0001) > OBEptrFile(15)='obcs/RedSea_64x72x41_POFe_East',
(PID.TID 0000.0001) > OBEptrFile(16)='obcs/RedSea_64x72x41_POSi_East',
(PID.TID 0000.0001) > OBEptrFile(17)='obcs/RedSea_64x72x41_PIC_East',
(PID.TID 0000.0001) > OBEptrFile(18)='obcs/RedSea_64x72x41_ALK_East',
(PID.TID 0000.0001) > OBEptrFile(19)='obcs/RedSea_64x72x41_O2_East',
(PID.TID 0000.0001) > OBEptrFile(20)='obcs/RedSea_64x72x41_c1_East',
(PID.TID 0000.0001) > OBEptrFile(21)='obcs/RedSea_64x72x41_c2_East',
(PID.TID 0000.0001) > OBEptrFile(22)='obcs/RedSea_64x72x41_c3_East',
(PID.TID 0000.0001) > OBEptrFile(23)='obcs/RedSea_64x72x41_c4_East',
(PID.TID 0000.0001) > OBEptrFile(24)='obcs/RedSea_64x72x41_c5_East',
(PID.TID 0000.0001) > OBEptrFile(25)='obcs/RedSea_64x72x41_c6_East',
(PID.TID 0000.0001) > OBEptrFile(26)='obcs/RedSea_64x72x41_c7_East',
(PID.TID 0000.0001) > OBEptrFile(27)='obcs/RedSea_64x72x41_Chl1_East',
(PID.TID 0000.0001) > OBEptrFile(28)='obcs/RedSea_64x72x41_Chl2_East',
(PID.TID 0000.0001) > OBEptrFile(29)='obcs/RedSea_64x72x41_Chl3_East',
(PID.TID 0000.0001) > OBEptrFile(30)='obcs/RedSea_64x72x41_Chl4_East',
(PID.TID 0000.0001) > OBEptrFile(31)='obcs/RedSea_64x72x41_Chl5_East',
(PID.TID 0000.0001) >#
(PID.TID 0000.0001) > /
(PID.TID 0000.0001) ># Sponge layer parameters
(PID.TID 0000.0001) > &OBCS_PARM05
(PID.TID 0000.0001) > /
(PID.TID 0000.0001) 
(PID.TID 0000.0001)  OBCS_READPARMS: finished reading data.obcs
(PID.TID 0000.0001)  GGL90_READPARMS: opening data.ggl90
(PID.TID 0000.0001)  OPEN_COPY_DATA_FILE: opening file data.ggl90
(PID.TID 0000.0001) // =======================================================
(PID.TID 0000.0001) // Parameter file "data.ggl90"
(PID.TID 0000.0001) // =======================================================
(PID.TID 0000.0001) ># =====================================================================
(PID.TID 0000.0001) ># | Parameters for Gaspar et al. (1990)'s TKE vertical mixing scheme  |
(PID.TID 0000.0001) ># =====================================================================
(PID.TID 0000.0001) > &GGL90_PARM01
(PID.TID 0000.0001) > GGL90alpha=30.,
(PID.TID 0000.0001) > GGL90TKEmin  = 1.e-7,
(PID.TID 0000.0001) > GGL90TKEbottom = 1.e-6,
(PID.TID 0000.0001) > mxlMaxFlag =2,
(PID.TID 0000.0001) > mxlSurfFlag=.TRUE.,
(PID.TID 0000.0001) > /
(PID.TID 0000.0001) 
(PID.TID 0000.0001)  GGL90_READPARMS ; starts to read GGL90_PARM01
(PID.TID 0000.0001)  GGL90_READPARMS: read GGL90_PARM01 : OK
(PID.TID 0000.0001)  GGL90_READPARMS: finished reading data.ggl90
(PID.TID 0000.0001) // =======================================================
(PID.TID 0000.0001) // GGL90 configuration
(PID.TID 0000.0001) // =======================================================
(PID.TID 0000.0001) GGL90dumpFreq =   /* GGL90 state write out interval ( s ). */
(PID.TID 0000.0001)                 0.000000000000000E+00
(PID.TID 0000.0001)     ;
(PID.TID 0000.0001) GGL90taveFreq =   /* GGL90 averaging interval ( s ). */
(PID.TID 0000.0001)                 0.000000000000000E+00
(PID.TID 0000.0001)     ;
(PID.TID 0000.0001) GGL90mixingMAPS =   /* GGL90 IO flag. */
(PID.TID 0000.0001)                   F
(PID.TID 0000.0001)     ;
(PID.TID 0000.0001) GGL90writeState =   /* GGL90 IO flag. */
(PID.TID 0000.0001)                   F
(PID.TID 0000.0001)     ;
(PID.TID 0000.0001) GGL90ck =   /* GGL90 viscosity parameter. */
(PID.TID 0000.0001)                 1.000000000000000E-01
(PID.TID 0000.0001)     ;
(PID.TID 0000.0001) GGL90ceps =   /* GGL90 dissipation parameter. */
(PID.TID 0000.0001)                 7.000000000000000E-01
(PID.TID 0000.0001)     ;
(PID.TID 0000.0001) GGL90alpha =   /* GGL90 TKE diffusivity parameter. */
(PID.TID 0000.0001)                 3.000000000000000E+01
(PID.TID 0000.0001)     ;
(PID.TID 0000.0001) GGL90m2 =   /* GGL90 wind stress to vertical stress ratio. */
(PID.TID 0000.0001)                 3.750000000000000E+00
(PID.TID 0000.0001)     ;
(PID.TID 0000.0001) GGL90TKEmin =   /* GGL90 minimum kinetic energy ( m^2/s^2 ). */
(PID.TID 0000.0001)                 1.000000000000000E-07
(PID.TID 0000.0001)     ;
(PID.TID 0000.0001) GGL90TKEsurfMin =   /* GGL90 minimum surface kinetic energy ( m^2/s^2 ). */
(PID.TID 0000.0001)                 1.000000000000000E-04
(PID.TID 0000.0001)     ;
(PID.TID 0000.0001) GGL90TKEbottom =   /* GGL90 bottom kinetic energy ( m^2/s^2 ). */
(PID.TID 0000.0001)                 1.000000000000000E-06
(PID.TID 0000.0001)     ;
(PID.TID 0000.0001) GGL90viscMax =   /* GGL90 upper limit for viscosity ( m^2/s ). */
(PID.TID 0000.0001)                 1.000000000000000E+02
(PID.TID 0000.0001)     ;
(PID.TID 0000.0001) GGL90diffMax =   /* GGL90 upper limit for diffusivity ( m^2/s ). */
(PID.TID 0000.0001)                 1.000000000000000E+02
(PID.TID 0000.0001)     ;
(PID.TID 0000.0001) GGL90diffTKEh =   /* GGL90 horizontal diffusivity for TKE ( m^2/s ). */
(PID.TID 0000.0001)                 0.000000000000000E+00
(PID.TID 0000.0001)     ;
(PID.TID 0000.0001) GGL90mixingLengthMin =   /* GGL90 minimum mixing length ( m ). */
(PID.TID 0000.0001)                 1.000000000000000E-08
(PID.TID 0000.0001)     ;
(PID.TID 0000.0001) mxlMaxFlag =   /* Flag for limiting mixing-length method */
(PID.TID 0000.0001)                       2
(PID.TID 0000.0001)     ;
(PID.TID 0000.0001) mxlSurfFlag =   /* GGL90 flag for near surface mixing. */
(PID.TID 0000.0001)                   T
(PID.TID 0000.0001)     ;
(PID.TID 0000.0001) calcMeanVertShear = /* calc Mean of Vert.Shear (vs shear of Mean flow) */
(PID.TID 0000.0001)                   F
(PID.TID 0000.0001)     ;
(PID.TID 0000.0001) GGL90: GGL90TKEFile =
(PID.TID 0000.0001) GGL90writeState =   /* GGL90 Boundary condition flag. */
(PID.TID 0000.0001)                   T
(PID.TID 0000.0001)     ;
(PID.TID 0000.0001) // =======================================================
(PID.TID 0000.0001) // End of GGL90 config. summary
(PID.TID 0000.0001) // =======================================================
(PID.TID 0000.0001) 
(PID.TID 0000.0001)  GM_READPARMS: opening data.gmredi
(PID.TID 0000.0001)  OPEN_COPY_DATA_FILE: opening file data.gmredi
(PID.TID 0000.0001) // =======================================================
(PID.TID 0000.0001) // Parameter file "data.gmredi"
(PID.TID 0000.0001) // =======================================================
(PID.TID 0000.0001) ># GM+Redi package parameters:
(PID.TID 0000.0001) >#     GM_Small_Number  :: epsilon used in computing the slope
(PID.TID 0000.0001) >#     GM_slopeSqCutoff :: slope^2 cut-off value
(PID.TID 0000.0001) >
(PID.TID 0000.0001) >#-from MOM :
(PID.TID 0000.0001) ># GM_background_K: 	G & Mc.W  diffusion coefficient
(PID.TID 0000.0001) ># GM_maxSlope    :	max slope of isopycnals
(PID.TID 0000.0001) ># GM_Scrit       :	transition for scaling diffusion coefficient
(PID.TID 0000.0001) ># GM_Sd          :	half width scaling for diffusion coefficient
(PID.TID 0000.0001) ># GM_taper_scheme:	slope clipping or one of the tapering schemes
(PID.TID 0000.0001) ># GM_Kmin_horiz  :	horizontal diffusion minimum value
(PID.TID 0000.0001) >
(PID.TID 0000.0001) >#-Option parameters (needs to "define" options in GMREDI_OPTIONS.h")
(PID.TID 0000.0001) ># GM_isopycK     :	isopycnal diffusion coefficient (default=GM_background_K)
(PID.TID 0000.0001) ># GM_AdvForm     :	turn on GM Advective form       (default=Skew flux form)
(PID.TID 0000.0001) >
(PID.TID 0000.0001) > &GM_PARM01
(PID.TID 0000.0001) >  GM_Small_Number       = 1.D-20,
(PID.TID 0000.0001) >  GM_slopeSqCutoff      = 1.D+08,
(PID.TID 0000.0001) >  GM_AdvForm            = .TRUE.,
(PID.TID 0000.0001) >  GM_isopycK            = 100.,
(PID.TID 0000.0001) >  GM_background_K       = 100.,
(PID.TID 0000.0001) >  GM_maxSlope           = 4.D-3,
(PID.TID 0000.0001) >  GM_taper_scheme       = 'stableGmAdjTap',
(PID.TID 0000.0001) >  GM_Kmin_horiz         = 10.,
(PID.TID 0000.0001) >  GM_Scrit              = 4.D-3,
(PID.TID 0000.0001) >  GM_Sd                 = 1.D-3,
(PID.TID 0000.0001) >  GM_background_K3dFile = 'era_xx_it42_v2/RedSea_64x72_kapgm',
(PID.TID 0000.0001) >  GM_isopycK3dFile      = 'era_xx_it42_v2/RedSea_64x72_kapredi',
(PID.TID 0000.0001) > /
(PID.TID 0000.0001) 
(PID.TID 0000.0001)  GM_READPARMS: finished reading data.gmredi
(PID.TID 0000.0001)  PTRACERS_READPARMS: opening data.ptracers
(PID.TID 0000.0001)  OPEN_COPY_DATA_FILE: opening file data.ptracers
(PID.TID 0000.0001) // =======================================================
(PID.TID 0000.0001) // Parameter file "data.ptracers"
(PID.TID 0000.0001) // =======================================================
(PID.TID 0000.0001) > &PTRACERS_PARM01
(PID.TID 0000.0001) > PTRACERS_numInUse= 31,
(PID.TID 0000.0001) >#
(PID.TID 0000.0001) > PTRACERS_advScheme(:)= 31*33,
(PID.TID 0000.0001) > PTRACERS_diffKh(:)= 31*0.E3,
(PID.TID 0000.0001) > PTRACERS_diffKr(:)= 31*1.E-5,
(PID.TID 0000.0001) > PTRACERS_useGMRedi(:)= 31*.TRUE.,
(PID.TID 0000.0001) >#
(PID.TID 0000.0001) > PTRACERS_EvPrRn(:)= 31*0.E3,
(PID.TID 0000.0001) >#
(PID.TID 0000.0001) > PTRACERS_names( 1)= 'DIC',
(PID.TID 0000.0001) > PTRACERS_names( 2)= 'NO3',
(PID.TID 0000.0001) > PTRACERS_names( 3)= 'NO2',
(PID.TID 0000.0001) > PTRACERS_names( 4)= 'NH4',
(PID.TID 0000.0001) > PTRACERS_names( 5)= 'PO4',
(PID.TID 0000.0001) > PTRACERS_names( 6)= 'FeT',
(PID.TID 0000.0001) > PTRACERS_names( 7)= 'SiO2',
(PID.TID 0000.0001) > PTRACERS_names( 8)= 'DOC',
(PID.TID 0000.0001) > PTRACERS_names( 9)= 'DON',
(PID.TID 0000.0001) > PTRACERS_names(10)= 'DOP',
(PID.TID 0000.0001) > PTRACERS_names(11)= 'DOFe',
(PID.TID 0000.0001) > PTRACERS_names(12)= 'POC',
(PID.TID 0000.0001) > PTRACERS_names(13)= 'PON',
(PID.TID 0000.0001) > PTRACERS_names(14)= 'POP',
(PID.TID 0000.0001) > PTRACERS_names(15)= 'POFe',
(PID.TID 0000.0001) > PTRACERS_names(16)= 'POSi',
(PID.TID 0000.0001) > PTRACERS_names(17)= 'PIC',
(PID.TID 0000.0001) > PTRACERS_names(18)= 'ALK',
(PID.TID 0000.0001) > PTRACERS_names(19)= 'O2',
(PID.TID 0000.0001) > PTRACERS_names(20)= 'c01',
(PID.TID 0000.0001) > PTRACERS_names(21)= 'c02',
(PID.TID 0000.0001) > PTRACERS_names(22)= 'c03',
(PID.TID 0000.0001) > PTRACERS_names(23)= 'c04',
(PID.TID 0000.0001) > PTRACERS_names(24)= 'c05',
(PID.TID 0000.0001) > PTRACERS_names(25)= 'c06',
(PID.TID 0000.0001) > PTRACERS_names(26)= 'c07',
(PID.TID 0000.0001) > PTRACERS_names(27)= 'Chl01',
(PID.TID 0000.0001) > PTRACERS_names(28)= 'Chl02',
(PID.TID 0000.0001) > PTRACERS_names(29)= 'Chl03',
(PID.TID 0000.0001) > PTRACERS_names(30)= 'Chl04',
(PID.TID 0000.0001) > PTRACERS_names(31)= 'Chl05',
(PID.TID 0000.0001) >#
(PID.TID 0000.0001) ># uM is shorthand for mmol m^-3
(PID.TID 0000.0001) >#
(PID.TID 0000.0001) > PTRACERS_units( 1)= 'uM C'
(PID.TID 0000.0001) > PTRACERS_units( 2)= 'uM N'
(PID.TID 0000.0001) > PTRACERS_units( 3)= 'uM N'
(PID.TID 0000.0001) > PTRACERS_units( 4)= 'uM N'
(PID.TID 0000.0001) > PTRACERS_units( 5)= 'uM P'
(PID.TID 0000.0001) > PTRACERS_units( 6)= 'uM Fe'
(PID.TID 0000.0001) > PTRACERS_units( 7)= 'uM Si'
(PID.TID 0000.0001) > PTRACERS_units( 8)= 'uM C'
(PID.TID 0000.0001) > PTRACERS_units( 9)= 'uM N'
(PID.TID 0000.0001) > PTRACERS_units(10)= 'uM P'
(PID.TID 0000.0001) > PTRACERS_units(11)= 'uM Fe'
(PID.TID 0000.0001) > PTRACERS_units(12)= 'uM C'
(PID.TID 0000.0001) > PTRACERS_units(13)= 'uM N'
(PID.TID 0000.0001) > PTRACERS_units(14)= 'uM P'
(PID.TID 0000.0001) > PTRACERS_units(15)= 'uM Fe'
(PID.TID 0000.0001) > PTRACERS_units(16)= 'uM Si'
(PID.TID 0000.0001) > PTRACERS_units(17)= 'uM C'
(PID.TID 0000.0001) > PTRACERS_units(18)= 'meq/m^3'
(PID.TID 0000.0001) > PTRACERS_units(19)= 'uM O'
(PID.TID 0000.0001) > PTRACERS_units(20)= 'uM C'
(PID.TID 0000.0001) > PTRACERS_units(21)= 'uM C'
(PID.TID 0000.0001) > PTRACERS_units(22)= 'uM C'
(PID.TID 0000.0001) > PTRACERS_units(23)= 'uM C'
(PID.TID 0000.0001) > PTRACERS_units(24)= 'uM C'
(PID.TID 0000.0001) > PTRACERS_units(25)= 'uM C'
(PID.TID 0000.0001) > PTRACERS_units(26)= 'uM C'
(PID.TID 0000.0001) > PTRACERS_units(27)= 'mg/m^3'
(PID.TID 0000.0001) > PTRACERS_units(28)= 'mg/m^3'
(PID.TID 0000.0001) > PTRACERS_units(29)= 'mg/m^3'
(PID.TID 0000.0001) > PTRACERS_units(30)= 'mg/m^3'
(PID.TID 0000.0001) > PTRACERS_units(31)= 'mg/m^3'
(PID.TID 0000.0001) >#
(PID.TID 0000.0001) > PTRACERS_initialFile( 1)= 'init/DIC_64x72x41.16-Jan-1992',
(PID.TID 0000.0001) > PTRACERS_initialFile( 2)= 'init/NO3_64x72x41.16-Jan-1992',
(PID.TID 0000.0001) > PTRACERS_initialFile( 3)= 'init/NO2_64x72x41.16-Jan-1992',
(PID.TID 0000.0001) > PTRACERS_initialFile( 4)= 'init/NH4_64x72x41.16-Jan-1992',
(PID.TID 0000.0001) > PTRACERS_initialFile( 5)= 'init/PO4_64x72x41.16-Jan-1992',
(PID.TID 0000.0001) > PTRACERS_initialFile( 6)= 'init/FeT_64x72x41.16-Jan-1992',
(PID.TID 0000.0001) > PTRACERS_initialFile( 7)= 'init/SiO2_64x72x41.16-Jan-1992',
(PID.TID 0000.0001) > PTRACERS_initialFile( 8)= 'init/DOC_64x72x41.16-Jan-1992',
(PID.TID 0000.0001) > PTRACERS_initialFile( 9)= 'init/DON_64x72x41.16-Jan-1992',
(PID.TID 0000.0001) > PTRACERS_initialFile(10)= 'init/DOP_64x72x41.16-Jan-1992',
(PID.TID 0000.0001) > PTRACERS_initialFile(11)= 'init/DOFe_64x72x41.16-Jan-1992',
(PID.TID 0000.0001) > PTRACERS_initialFile(12)= 'init/POC_64x72x41.16-Jan-1992',
(PID.TID 0000.0001) > PTRACERS_initialFile(13)= 'init/PON_64x72x41.16-Jan-1992',
(PID.TID 0000.0001) > PTRACERS_initialFile(14)= 'init/POP_64x72x41.16-Jan-1992',
(PID.TID 0000.0001) > PTRACERS_initialFile(15)= 'init/POFe_64x72x41.16-Jan-1992',
(PID.TID 0000.0001) > PTRACERS_initialFile(16)= 'init/POSi_64x72x41.16-Jan-1992',
(PID.TID 0000.0001) > PTRACERS_initialFile(17)= 'init/PIC_64x72x41.16-Jan-1992',
(PID.TID 0000.0001) > PTRACERS_initialFile(18)= 'init/ALK_64x72x41.16-Jan-1992',
(PID.TID 0000.0001) > PTRACERS_initialFile(19)= 'init/O2_64x72x41.16-Jan-1992',
(PID.TID 0000.0001) > PTRACERS_initialFile(20)= 'init/c1_64x72x41.16-Jan-1992',
(PID.TID 0000.0001) > PTRACERS_initialFile(21)= 'init/c2_64x72x41.16-Jan-1992',
(PID.TID 0000.0001) > PTRACERS_initialFile(22)= 'init/c3_64x72x41.16-Jan-1992',
(PID.TID 0000.0001) > PTRACERS_initialFile(23)= 'init/c4_64x72x41.16-Jan-1992',
(PID.TID 0000.0001) > PTRACERS_initialFile(24)= 'init/c5_64x72x41.16-Jan-1992',
(PID.TID 0000.0001) > PTRACERS_initialFile(25)= 'init/c6_64x72x41.16-Jan-1992',
(PID.TID 0000.0001) > PTRACERS_initialFile(26)= 'init/c7_64x72x41.16-Jan-1992',
(PID.TID 0000.0001) > PTRACERS_initialFile(27)= 'init/Chl1_64x72x41.16-Jan-1992',
(PID.TID 0000.0001) > PTRACERS_initialFile(28)= 'init/Chl2_64x72x41.16-Jan-1992',
(PID.TID 0000.0001) > PTRACERS_initialFile(29)= 'init/Chl3_64x72x41.16-Jan-1992',
(PID.TID 0000.0001) > PTRACERS_initialFile(30)= 'init/Chl4_64x72x41.16-Jan-1992',
(PID.TID 0000.0001) > PTRACERS_initialFile(31)= 'init/Chl5_64x72x41.16-Jan-1992',
(PID.TID 0000.0001) > /
(PID.TID 0000.0001) 
(PID.TID 0000.0001)  PTRACERS_READPARMS: finished reading data.ptracers
(PID.TID 0000.0001)  GCHEM_READPARMS: opening data.gchem
(PID.TID 0000.0001)  OPEN_COPY_DATA_FILE: opening file data.gchem
(PID.TID 0000.0001) // =======================================================
(PID.TID 0000.0001) // Parameter file "data.gchem"
(PID.TID 0000.0001) // =======================================================
(PID.TID 0000.0001) > &GCHEM_PARM01
(PID.TID 0000.0001) > useDARWIN=.TRUE.,
(PID.TID 0000.0001) >  nsubtime=1,
(PID.TID 0000.0001) > /
(PID.TID 0000.0001) 
(PID.TID 0000.0001)  GCHEM_READPARMS: finished reading data.gchem
(PID.TID 0000.0001)  DARWIN_READPARMS: opening data.darwin
(PID.TID 0000.0001)  OPEN_COPY_DATA_FILE: opening file data.darwin
(PID.TID 0000.0001) // =======================================================
(PID.TID 0000.0001) // Parameter file "data.darwin"
(PID.TID 0000.0001) // =======================================================
(PID.TID 0000.0001) > &DARWIN_FORCING_PARAMS
(PID.TID 0000.0001) > ironfile = 'era_xx_it42_v2/RedSea_64x72_iron_dust',
(PID.TID 0000.0001) > ironperiod = -12,
(PID.TID 0000.0001) > darwin_inscal_iron= 1000.,
(PID.TID 0000.0001) >#
(PID.TID 0000.0001) > pCO2File = 'apCO2',
(PID.TID 0000.0001) > pCO2startdate1 = 19920101,
(PID.TID 0000.0001) > pCO2startdate2 = 000000,
(PID.TID 0000.0001) > pCO2period     = 86400.0,
(PID.TID 0000.0001) >#
(PID.TID 0000.0001) > darwin_useEXFwind = .TRUE.,
(PID.TID 0000.0001) > darwin_useQsw = .TRUE.,
(PID.TID 0000.0001) > darwin_useSEAICE = .TRUE.,
(PID.TID 0000.0001) > /
(PID.TID 0000.0001) > &DARWIN_INTERP_PARAMS
(PID.TID 0000.0001) > iron_interpMethod = 0,
(PID.TID 0000.0001) >#
(PID.TID 0000.0001) > pCO2_lon0    = 0.0D0,
(PID.TID 0000.0001) > pCO2_lon_inc = 360.0D0,
(PID.TID 0000.0001) > pCO2_lat0    = -89.4628220D0,
(PID.TID 0000.0001) > pCO2_lat_inc = 0.6958694,0.6999817,0.7009048,0.7012634,0.7014313,
(PID.TID 0000.0001) >                245*0.7017418,
(PID.TID 0000.0001) >                0.7014313,0.7012634,0.7009048,0.6999817,0.6958694
(PID.TID 0000.0001) > pCO2_nlon    = 2,
(PID.TID 0000.0001) > pCO2_nlat    = 256,
(PID.TID 0000.0001) > /
(PID.TID 0000.0001) > &DARWIN_PARAMS
(PID.TID 0000.0001) ># do not read darwin pickup
(PID.TID 0000.0001) > darwin_pickupSuff= ' ',
(PID.TID 0000.0001) > darwin_chlInitBalanced= .FALSE.,
(PID.TID 0000.0001) > darwin_chlIter0= 1,
(PID.TID 0000.0001) > darwin_seed= 56,
(PID.TID 0000.0001) > ALPFE   =  0.92831,
(PID.TID 0000.0001) > FREEFEMAX       =  1E-4,
(PID.TID 0000.0001) > SCAV_RAT        =   6.02502315E-7,
(PID.TID 0000.0001) > DEPTHFESED      =   7000.0,
(PID.TID 0000.0001) ># KDOC    =  1.157407407407407E-7,
(PID.TID 0000.0001) > KDOP    =  2.314814814814815E-7,
(PID.TID 0000.0001) > KDON    =  2.314814814814815E-7,
(PID.TID 0000.0001) > KDOFE   =  2.314814814814815E-7,
(PID.TID 0000.0001) ># KPOC    =  2.314814814814815E-7,
(PID.TID 0000.0001) > KPOP    =  4.629629629629630E-7,
(PID.TID 0000.0001) > KPON    =  4.629629629629630E-7,
(PID.TID 0000.0001) > KPOFE   =  4.629629629629630E-7,
(PID.TID 0000.0001) > KPOSI   =  7.716049382716049E-8,
(PID.TID 0000.0001) > SURFDICMIN  =   100.0,
(PID.TID 0000.0001) > SURFALKMIN  =   100.0,
(PID.TID 0000.0001) > /
(PID.TID 0000.0001) > &DARWIN_RANDOM_PARAMS
(PID.TID 0000.0001) > smallgrow=0.66098,
(PID.TID 0000.0001) > biggrow=0.43148,
(PID.TID 0000.0001) > diatomgraz=0.83003,
(PID.TID 0000.0001) > val_R_PICPOC=0.04245,
(PID.TID 0000.0001) > /
(PID.TID 0000.0001) > &DARWIN_TRAIT_PARAMS
(PID.TID 0000.0001) > /
(PID.TID 0000.0001) 
(PID.TID 0000.0001)  ===================================
(PID.TID 0000.0001) GCHEM_TR_REGISTER:  Start registering GCHEM tracers
(PID.TID 0000.0001)   DARWIN_TR_REGISTER:  number of DARWIN tracers=   31
(PID.TID 0000.0001)   DARWIN_TR_REGISTER:   starting at pTrc num=    1
(PID.TID 0000.0001)   DARWIN_TR_REGISTER:  Numb. Trac & SepForc Trac:   31   31
(PID.TID 0000.0001) GCHEM_TR_REGISTER:  Numb. Trac & SepForc Trac:   31   31
(PID.TID 0000.0001) 
(PID.TID 0000.0001)  DIAGNOSTICS_READPARMS: opening data.diagnostics
(PID.TID 0000.0001)  OPEN_COPY_DATA_FILE: opening file data.diagnostics
(PID.TID 0000.0001) // =======================================================
(PID.TID 0000.0001) // Parameter file "data.diagnostics"
(PID.TID 0000.0001) // =======================================================
(PID.TID 0000.0001) ># Diagnostic Package Choices
(PID.TID 0000.0001) >#-----------------
(PID.TID 0000.0001) ># for each output-stream:
(PID.TID 0000.0001) >#  filename(n) : prefix of the output file name (only 8.c long) for outp.stream n
(PID.TID 0000.0001) >#  frequency(n):< 0 : write snap-shot output every multiple of |frequency| (iter)
(PID.TID 0000.0001) >#               > 0 : write time-average output every multiple of frequency (iter)
(PID.TID 0000.0001) >#  levels(:,n) : list of levels to write to file (Notes: declared as REAL)
(PID.TID 0000.0001) >#                 when this entry is missing, select all common levels of this list
(PID.TID 0000.0001) >#  fields(:,n) : list of diagnostics fields (8.c) (see "available_diagnostics" file
(PID.TID 0000.0001) >#                 for the list of all available diag. in this particular config)
(PID.TID 0000.0001) >#--------------------------------------------------------------------
(PID.TID 0000.0001) >#
(PID.TID 0000.0001) > &diagnostics_list
(PID.TID 0000.0001) >#
(PID.TID 0000.0001) >  dumpatlast = .TRUE.,
(PID.TID 0000.0001) >
(PID.TID 0000.0001) >#daily diagnostics
(PID.TID 0000.0001) >#---
(PID.TID 0000.0001) >  frequency(1) = 86400.,
(PID.TID 0000.0001) >   fields(1,1) = 'fluxCO2 ',
(PID.TID 0000.0001) >   filename(1) = 'diags/daily/CO2_flux',
(PID.TID 0000.0001) >#---
(PID.TID 0000.0001) >  frequency(2) = 86400.,
(PID.TID 0000.0001) >   fields(1,2) = 'gDICsurf',
(PID.TID 0000.0001) >   filename(2) = 'diags/daily/surfDIC_tend',
(PID.TID 0000.0001) >#---
(PID.TID 0000.0001) >  frequency(3) = 86400.,
(PID.TID 0000.0001) >   fields(1,3) = 'gO2surf ',
(PID.TID 0000.0001) >   filename(3) = 'diags/daily/O2_flux',
(PID.TID 0000.0001) >#---
(PID.TID 0000.0001) >  frequency(4) = 86400.,
(PID.TID 0000.0001) >   fields(1,4) = 'pH      ',
(PID.TID 0000.0001) >   filename(4) = 'diags/daily/pH',
(PID.TID 0000.0001) >#---
(PID.TID 0000.0001) >  frequency(5) = 86400.,
(PID.TID 0000.0001) >   fields(1,5) = 'pCO2    ',
(PID.TID 0000.0001) >   filename(5) = 'diags/daily/pCO2',
(PID.TID 0000.0001) >#---
(PID.TID 0000.0001) >  frequency(6) = 86400.,
(PID.TID 0000.0001) >   fields(1,6) = 'apCO2   ',
(PID.TID 0000.0001) >   filename(6) = 'diags/daily/apCO2',
(PID.TID 0000.0001) >#---
(PID.TID 0000.0001) >  frequency(7) = 86400.,
(PID.TID 0000.0001) >   fields(1,7) = 'EXFwspee',
(PID.TID 0000.0001) >   filename(7) = 'diags/daily/wspeed',
(PID.TID 0000.0001) >#---
(PID.TID 0000.0001) >  frequency(8) = 86400.,
(PID.TID 0000.0001) >   fields(1,8) = 'THETA   ',
(PID.TID 0000.0001) >   levels(1,8) = 1.,
(PID.TID 0000.0001) >   filename(8) = 'diags/daily/SST',
(PID.TID 0000.0001) >#---
(PID.TID 0000.0001) >  frequency(9) = 86400.,
(PID.TID 0000.0001) >   fields(1,9) = 'SALTanom',
(PID.TID 0000.0001) >   levels(1,9) = 1.,
(PID.TID 0000.0001) >   filename(9) = 'diags/daily/SSSanom',
(PID.TID 0000.0001) >#---
(PID.TID 0000.0001) >  frequency(10) = 86400.,
(PID.TID 0000.0001) >   fields(1,10) = 'TRAC27  ',
(PID.TID 0000.0001) >   levels(1,10) = 1.,
(PID.TID 0000.0001) >   filename(10) = 'diags/daily/surfChl1',
(PID.TID 0000.0001) >#---
(PID.TID 0000.0001) >  frequency(11) = 86400.,
(PID.TID 0000.0001) >   fields(1,11) = 'TRAC28  ',
(PID.TID 0000.0001) >   levels(1,11) = 1.,
(PID.TID 0000.0001) >   filename(11) = 'diags/daily/surfChl2',
(PID.TID 0000.0001) >#---
(PID.TID 0000.0001) >  frequency(12) = 86400.,
(PID.TID 0000.0001) >   fields(1,12) = 'TRAC29  ',
(PID.TID 0000.0001) >   levels(1,12) = 1.,
(PID.TID 0000.0001) >   filename(12) = 'diags/daily/surfChl3',
(PID.TID 0000.0001) >#---
(PID.TID 0000.0001) >  frequency(13) = 86400.,
(PID.TID 0000.0001) >   fields(1,13) = 'TRAC30  ',
(PID.TID 0000.0001) >   levels(1,13) = 1.,
(PID.TID 0000.0001) >   filename(13) = 'diags/daily/surfChl4',
(PID.TID 0000.0001) >#---
(PID.TID 0000.0001) >  frequency(14) = 86400.,
(PID.TID 0000.0001) >   fields(1,14) = 'TRAC31  ',
(PID.TID 0000.0001) >   levels(1,14) = 1.,
(PID.TID 0000.0001) >   filename(14) = 'diags/daily/surfChl5',
(PID.TID 0000.0001) >#---
(PID.TID 0000.0001) >   frequency(15) = 86400.,
(PID.TID 0000.0001) >    fields(1,15) = 'MXLDEPTH',
(PID.TID 0000.0001) >    filename(15) = 'diags/daily/mldDepth',
(PID.TID 0000.0001) >#---
(PID.TID 0000.0001) >
(PID.TID 0000.0001) >#monthly diagnostics
(PID.TID 0000.0001) >#---
(PID.TID 0000.0001) >  frequency(16) = 2635200.,
(PID.TID 0000.0001) >   fields(1,16) = 'THETA   ',
(PID.TID 0000.0001) >   filename(16) = 'diags/monthly/THETA',
(PID.TID 0000.0001) >#---
(PID.TID 0000.0001) >  frequency(17) = 2635200.,
(PID.TID 0000.0001) >   fields(1,17) = 'SALTanom',
(PID.TID 0000.0001) >   filename(17) = 'diags/monthly/SALTanom',
(PID.TID 0000.0001) >#---
(PID.TID 0000.0001) >  frequency(18) = 2635200.,
(PID.TID 0000.0001) >   fields(1,18) = 'THETA   ',
(PID.TID 0000.0001) >   levels(1,18) = 1.,
(PID.TID 0000.0001) >   filename(18) = 'diags/monthly/SST',
(PID.TID 0000.0001) >#---
(PID.TID 0000.0001) >  frequency(19) = 2635200.,
(PID.TID 0000.0001) >   fields(1,19) = 'SALTanom',
(PID.TID 0000.0001) >   levels(1,19) = 1.,
(PID.TID 0000.0001) >   filename(19) = 'diags/monthly/SSSanom',
(PID.TID 0000.0001) >#---
(PID.TID 0000.0001) >  frequency(20) = 2635200.,
(PID.TID 0000.0001) >   fields(1,20) = 'MXLDEPTH',
(PID.TID 0000.0001) >   filename(20) = 'diags/monthly/mldDepth',
(PID.TID 0000.0001) >#---
(PID.TID 0000.0001) >  frequency(21) = 2635200.,
(PID.TID 0000.0001) >   fields(1,21) = 'oceQsw  ',
(PID.TID 0000.0001) >   filename(21) = 'diags/monthly/oceanQsw',
(PID.TID 0000.0001) >#---
(PID.TID 0000.0001) >  frequency(20) = 2635200.,
(PID.TID 0000.0001) >   fields(1,20) = 'oceQnet ',
(PID.TID 0000.0001) >   filename(20) = 'diags/monthly/oceanQnet',
(PID.TID 0000.0001) >#---
(PID.TID 0000.0001) >  frequency(21) = 2635200.,
(PID.TID 0000.0001) >   fields(1,21) = 'EXFwspee',
(PID.TID 0000.0001) >   filename(21) = 'diags/monthly/wspeed',
(PID.TID 0000.0001) >#---
(PID.TID 0000.0001) >  frequency(22) = 2635200.,
(PID.TID 0000.0001) >   fields(1,22) = 'WVEL    ',
(PID.TID 0000.0001) >   filename(22) = 'diags/monthly/wVel',
(PID.TID 0000.0001) >#---
(PID.TID 0000.0001) >  frequency(23:53) = 31*2635200.,
(PID.TID 0000.0001) >   fields(1,23) = 'TRAC01  ',
(PID.TID 0000.0001) >   fields(1,24) = 'TRAC02  ',
(PID.TID 0000.0001) >   fields(1,25) = 'TRAC03  ',
(PID.TID 0000.0001) >   fields(1,26) = 'TRAC04  ',
(PID.TID 0000.0001) >   fields(1,27) = 'TRAC05  ',
(PID.TID 0000.0001) >   fields(1,28) = 'TRAC06  ',
(PID.TID 0000.0001) >   fields(1,29) = 'TRAC07  ',
(PID.TID 0000.0001) >   fields(1,30) = 'TRAC08  ',
(PID.TID 0000.0001) >   fields(1,31) = 'TRAC09  ',
(PID.TID 0000.0001) >   fields(1,32) = 'TRAC10  ',
(PID.TID 0000.0001) >   fields(1,33) = 'TRAC11  ',
(PID.TID 0000.0001) >   fields(1,34) = 'TRAC12  ',
(PID.TID 0000.0001) >   fields(1,35) = 'TRAC13  ',
(PID.TID 0000.0001) >   fields(1,36) = 'TRAC14  ',
(PID.TID 0000.0001) >   fields(1,37) = 'TRAC15  ',
(PID.TID 0000.0001) >   fields(1,38) = 'TRAC16  ',
(PID.TID 0000.0001) >   fields(1,39) = 'TRAC17  ',
(PID.TID 0000.0001) >   fields(1,40) = 'TRAC18  ',
(PID.TID 0000.0001) >   fields(1,41) = 'TRAC19  ',
(PID.TID 0000.0001) >   fields(1,42) = 'TRAC20  ',
(PID.TID 0000.0001) >   fields(1,43) = 'TRAC21  ',
(PID.TID 0000.0001) >   fields(1,44) = 'TRAC22  ',
(PID.TID 0000.0001) >   fields(1,45) = 'TRAC23  ',
(PID.TID 0000.0001) >   fields(1,46) = 'TRAC24  ',
(PID.TID 0000.0001) >   fields(1,47) = 'TRAC25  ',
(PID.TID 0000.0001) >   fields(1,48) = 'TRAC26  ',
(PID.TID 0000.0001) >   fields(1,49) = 'TRAC27  ',
(PID.TID 0000.0001) >   fields(1,50) = 'TRAC28  ',
(PID.TID 0000.0001) >   fields(1,51) = 'TRAC29  ',
(PID.TID 0000.0001) >   fields(1,52) = 'TRAC30  ',
(PID.TID 0000.0001) >   fields(1,53) = 'TRAC31  ',
(PID.TID 0000.0001) >
(PID.TID 0000.0001) >   filename(23)= 'diags/monthly/DIC',
(PID.TID 0000.0001) >   filename(24)= 'diags/monthly/NO3',
(PID.TID 0000.0001) >   filename(25)= 'diags/monthly/NO2',
(PID.TID 0000.0001) >   filename(26)= 'diags/monthly/NH4',
(PID.TID 0000.0001) >   filename(27)= 'diags/monthly/PO4',
(PID.TID 0000.0001) >   filename(28)= 'diags/monthly/FeT',
(PID.TID 0000.0001) >   filename(29)= 'diags/monthly/SiO2',
(PID.TID 0000.0001) >   filename(30)= 'diags/monthly/DOC',
(PID.TID 0000.0001) >   filename(31)= 'diags/monthly/DON',
(PID.TID 0000.0001) >   filename(32)= 'diags/monthly/DOP',
(PID.TID 0000.0001) >   filename(33)= 'diags/monthly/DOFe',
(PID.TID 0000.0001) >   filename(34)= 'diags/monthly/POC',
(PID.TID 0000.0001) >   filename(35)= 'diags/monthly/PON',
(PID.TID 0000.0001) >   filename(36)= 'diags/monthly/POP',
(PID.TID 0000.0001) >   filename(37)= 'diags/monthly/POFe',
(PID.TID 0000.0001) >   filename(38)= 'diags/monthly/POSi',
(PID.TID 0000.0001) >   filename(39)= 'diags/monthly/PIC',
(PID.TID 0000.0001) >   filename(40)= 'diags/monthly/ALK',
(PID.TID 0000.0001) >   filename(41)= 'diags/monthly/O2',
(PID.TID 0000.0001) >   filename(42)= 'diags/monthly/c1',
(PID.TID 0000.0001) >   filename(43)= 'diags/monthly/c2',
(PID.TID 0000.0001) >   filename(44)= 'diags/monthly/c3',
(PID.TID 0000.0001) >   filename(45)= 'diags/monthly/c4',
(PID.TID 0000.0001) >   filename(46)= 'diags/monthly/c5',
(PID.TID 0000.0001) >   filename(47)= 'diags/monthly/c6',
(PID.TID 0000.0001) >   filename(48)= 'diags/monthly/c7',
(PID.TID 0000.0001) >   filename(49)= 'diags/monthly/Chl1',
(PID.TID 0000.0001) >   filename(50)= 'diags/monthly/Chl2',
(PID.TID 0000.0001) >   filename(51)= 'diags/monthly/Chl3',
(PID.TID 0000.0001) >   filename(52)= 'diags/monthly/Chl4',
(PID.TID 0000.0001) >   filename(53)= 'diags/monthly/Chl5',
(PID.TID 0000.0001) >#---
(PID.TID 0000.0001) >  frequency(54)  = 2635200.,
(PID.TID 0000.0001) >   fields(1,54)  = 'PAR    ',
(PID.TID 0000.0001) >   filename(54)  = 'diags/monthly/PAR',
(PID.TID 0000.0001) >#---
(PID.TID 0000.0001) >  frequency(55)  = 2635200.,
(PID.TID 0000.0001) >   fields(1,55)  = 'PP     ',
(PID.TID 0000.0001) >   filename(55)  = 'diags/monthly/primProd',
(PID.TID 0000.0001) >#---
(PID.TID 0000.0001) >  frequency(56) = 2635200.,
(PID.TID 0000.0001) >   fields(1,56) = 'fluxCO2 ',
(PID.TID 0000.0001) >   filename(56) = 'diags/monthly/CO2_flux',
(PID.TID 0000.0001) >#---
(PID.TID 0000.0001) >  frequency(57) = 2635200.,
(PID.TID 0000.0001) >   fields(1,57) = 'gO2surf ',
(PID.TID 0000.0001) >   filename(57) = 'diags/monthly/O2_flux',
(PID.TID 0000.0001) >#---
(PID.TID 0000.0001) >  frequency(58) = 2635200.,
(PID.TID 0000.0001) >   fields(1,58) = 'fugfCO2 ',
(PID.TID 0000.0001) >   filename(58) = 'diags/monthly/fugfCO2',
(PID.TID 0000.0001) >#---
(PID.TID 0000.0001) >  frequency(59) = 2635200.,
(PID.TID 0000.0001) >   fields(1,59) = 'fCO2    ',
(PID.TID 0000.0001) >   filename(59) = 'diags/monthly/fCO2',
(PID.TID 0000.0001) >#---
(PID.TID 0000.0001) >  frequency(60) = 2635200.,
(PID.TID 0000.0001) >   fields(1,60) = 'pCO2    ',
(PID.TID 0000.0001) >   filename(60) = 'diags/monthly/pCO2',
(PID.TID 0000.0001) >#---
(PID.TID 0000.0001) >  frequency(61) = 2635200.,
(PID.TID 0000.0001) >   fields(1,61) = 'apCO2   ',
(PID.TID 0000.0001) >   filename(61) = 'diags/monthly/apCO2',
(PID.TID 0000.0001) >#---
(PID.TID 0000.0001) >  frequency(62) = 2635200.,
(PID.TID 0000.0001) >   fields(1,62) = 'apCO2sat',
(PID.TID 0000.0001) >   filename(62) = 'diags/monthly/apCO2sat',
(PID.TID 0000.0001) >#---
(PID.TID 0000.0001) >  frequency(63) = 2635200.,
(PID.TID 0000.0001) >   fields(1,63) = 'pH      ',
(PID.TID 0000.0001) >   filename(63) = 'diags/monthly/pH',
(PID.TID 0000.0001) >
(PID.TID 0000.0001) > /
(PID.TID 0000.0001) >
(PID.TID 0000.0001) ># Parameter for Diagnostics of per level statistics:
(PID.TID 0000.0001) >#-----------------
(PID.TID 0000.0001) ># for each output-stream:
(PID.TID 0000.0001) >#  stat_fname(n) : prefix of the output file name (only 8.c long) for outp.stream n
(PID.TID 0000.0001) >#  stat_freq(n):< 0 : write snap-shot output every |stat_freq| seconds
(PID.TID 0000.0001) >#               > 0 : write time-average output every stat_freq seconds
(PID.TID 0000.0001) >#  stat_phase(n)    : write at time = stat_phase + multiple of |stat_freq|
(PID.TID 0000.0001) >#  stat_region(:,n) : list of "regions" (default: 1 region only=global)
(PID.TID 0000.0001) >#  stat_fields(:,n) : list of diagnostics fields (8.c) (see "available_diagnostics.log"
(PID.TID 0000.0001) >#                 file for the list of all available diag. in this particular config)
(PID.TID 0000.0001) >#-----------------
(PID.TID 0000.0001) > &DIAG_STATIS_PARMS
(PID.TID 0000.0001) >
(PID.TID 0000.0001) > /
(PID.TID 0000.0001) 
(PID.TID 0000.0001) S/R DIAGNOSTICS_READPARMS, read namelist "diagnostics_list": start
(PID.TID 0000.0001) S/R DIAGNOSTICS_READPARMS, read namelist "diagnostics_list": OK
(PID.TID 0000.0001) S/R DIAGNOSTICS_READPARMS, read namelist "DIAG_STATIS_PARMS": start
(PID.TID 0000.0001) S/R DIAGNOSTICS_READPARMS, read namelist "DIAG_STATIS_PARMS": OK
(PID.TID 0000.0001)  DIAGNOSTICS_READPARMS: global parameter summary:
(PID.TID 0000.0001)  dumpAtLast = /* always write time-ave diags at the end */
(PID.TID 0000.0001)                   T
(PID.TID 0000.0001)     ;
(PID.TID 0000.0001)  diag_mnc =   /* write NetCDF output files */
(PID.TID 0000.0001)                   F
(PID.TID 0000.0001)     ;
(PID.TID 0000.0001)  useMissingValue = /* put MissingValue where mask = 0 */
(PID.TID 0000.0001)                   F
(PID.TID 0000.0001)     ;
(PID.TID 0000.0001)  diagCG_maxIters = /* max number of iters in diag_cg2d */
(PID.TID 0000.0001)                     300
(PID.TID 0000.0001)     ;
(PID.TID 0000.0001)  diagCG_resTarget = /* residual target for diag_cg2d */
(PID.TID 0000.0001)                 1.000000000000000E-07
(PID.TID 0000.0001)     ;
(PID.TID 0000.0001)  diagCG_pcOffDFac = /* preconditioner off-diagonal factor */
(PID.TID 0000.0001)                 9.611687812379854E-01
(PID.TID 0000.0001)     ;
(PID.TID 0000.0001) -----------------------------------------------------
(PID.TID 0000.0001)  DIAGNOSTICS_READPARMS: active diagnostics summary:
(PID.TID 0000.0001) -----------------------------------------------------
(PID.TID 0000.0001) Creating Output Stream: diags/daily/CO2_flux
(PID.TID 0000.0001) Output Frequency:      86400.000000 ; Phase:           0.000000
(PID.TID 0000.0001)  Averaging Freq.:      86400.000000 , Phase:           0.000000 , Cycle:   1
(PID.TID 0000.0001)  missing value: -9.990000000000E+02
(PID.TID 0000.0001)  Levels:    will be set later
(PID.TID 0000.0001)  Fields:    fluxCO2
(PID.TID 0000.0001) Creating Output Stream: diags/daily/surfDIC_tend
(PID.TID 0000.0001) Output Frequency:      86400.000000 ; Phase:           0.000000
(PID.TID 0000.0001)  Averaging Freq.:      86400.000000 , Phase:           0.000000 , Cycle:   1
(PID.TID 0000.0001)  missing value: -9.990000000000E+02
(PID.TID 0000.0001)  Levels:    will be set later
(PID.TID 0000.0001)  Fields:    gDICsurf
(PID.TID 0000.0001) Creating Output Stream: diags/daily/O2_flux
(PID.TID 0000.0001) Output Frequency:      86400.000000 ; Phase:           0.000000
(PID.TID 0000.0001)  Averaging Freq.:      86400.000000 , Phase:           0.000000 , Cycle:   1
(PID.TID 0000.0001)  missing value: -9.990000000000E+02
(PID.TID 0000.0001)  Levels:    will be set later
(PID.TID 0000.0001)  Fields:    gO2surf
(PID.TID 0000.0001) Creating Output Stream: diags/daily/pH
(PID.TID 0000.0001) Output Frequency:      86400.000000 ; Phase:           0.000000
(PID.TID 0000.0001)  Averaging Freq.:      86400.000000 , Phase:           0.000000 , Cycle:   1
(PID.TID 0000.0001)  missing value: -9.990000000000E+02
(PID.TID 0000.0001)  Levels:    will be set later
(PID.TID 0000.0001)  Fields:    pH
(PID.TID 0000.0001) Creating Output Stream: diags/daily/pCO2
(PID.TID 0000.0001) Output Frequency:      86400.000000 ; Phase:           0.000000
(PID.TID 0000.0001)  Averaging Freq.:      86400.000000 , Phase:           0.000000 , Cycle:   1
(PID.TID 0000.0001)  missing value: -9.990000000000E+02
(PID.TID 0000.0001)  Levels:    will be set later
(PID.TID 0000.0001)  Fields:    pCO2
(PID.TID 0000.0001) Creating Output Stream: diags/daily/apCO2
(PID.TID 0000.0001) Output Frequency:      86400.000000 ; Phase:           0.000000
(PID.TID 0000.0001)  Averaging Freq.:      86400.000000 , Phase:           0.000000 , Cycle:   1
(PID.TID 0000.0001)  missing value: -9.990000000000E+02
(PID.TID 0000.0001)  Levels:    will be set later
(PID.TID 0000.0001)  Fields:    apCO2
(PID.TID 0000.0001) Creating Output Stream: diags/daily/wspeed
(PID.TID 0000.0001) Output Frequency:      86400.000000 ; Phase:           0.000000
(PID.TID 0000.0001)  Averaging Freq.:      86400.000000 , Phase:           0.000000 , Cycle:   1
(PID.TID 0000.0001)  missing value: -9.990000000000E+02
(PID.TID 0000.0001)  Levels:    will be set later
(PID.TID 0000.0001)  Fields:    EXFwspee
(PID.TID 0000.0001) Creating Output Stream: diags/daily/SST
(PID.TID 0000.0001) Output Frequency:      86400.000000 ; Phase:           0.000000
(PID.TID 0000.0001)  Averaging Freq.:      86400.000000 , Phase:           0.000000 , Cycle:   1
(PID.TID 0000.0001)  missing value: -9.990000000000E+02
(PID.TID 0000.0001)  Levels:       1.
(PID.TID 0000.0001)  Fields:    THETA
(PID.TID 0000.0001) Creating Output Stream: diags/daily/SSSanom
(PID.TID 0000.0001) Output Frequency:      86400.000000 ; Phase:           0.000000
(PID.TID 0000.0001)  Averaging Freq.:      86400.000000 , Phase:           0.000000 , Cycle:   1
(PID.TID 0000.0001)  missing value: -9.990000000000E+02
(PID.TID 0000.0001)  Levels:       1.
(PID.TID 0000.0001)  Fields:    SALTanom
(PID.TID 0000.0001) Creating Output Stream: diags/daily/surfChl1
(PID.TID 0000.0001) Output Frequency:      86400.000000 ; Phase:           0.000000
(PID.TID 0000.0001)  Averaging Freq.:      86400.000000 , Phase:           0.000000 , Cycle:   1
(PID.TID 0000.0001)  missing value: -9.990000000000E+02
(PID.TID 0000.0001)  Levels:       1.
(PID.TID 0000.0001)  Fields:    TRAC27
(PID.TID 0000.0001) Creating Output Stream: diags/daily/surfChl2
(PID.TID 0000.0001) Output Frequency:      86400.000000 ; Phase:           0.000000
(PID.TID 0000.0001)  Averaging Freq.:      86400.000000 , Phase:           0.000000 , Cycle:   1
(PID.TID 0000.0001)  missing value: -9.990000000000E+02
(PID.TID 0000.0001)  Levels:       1.
(PID.TID 0000.0001)  Fields:    TRAC28
(PID.TID 0000.0001) Creating Output Stream: diags/daily/surfChl3
(PID.TID 0000.0001) Output Frequency:      86400.000000 ; Phase:           0.000000
(PID.TID 0000.0001)  Averaging Freq.:      86400.000000 , Phase:           0.000000 , Cycle:   1
(PID.TID 0000.0001)  missing value: -9.990000000000E+02
(PID.TID 0000.0001)  Levels:       1.
(PID.TID 0000.0001)  Fields:    TRAC29
(PID.TID 0000.0001) Creating Output Stream: diags/daily/surfChl4
(PID.TID 0000.0001) Output Frequency:      86400.000000 ; Phase:           0.000000
(PID.TID 0000.0001)  Averaging Freq.:      86400.000000 , Phase:           0.000000 , Cycle:   1
(PID.TID 0000.0001)  missing value: -9.990000000000E+02
(PID.TID 0000.0001)  Levels:       1.
(PID.TID 0000.0001)  Fields:    TRAC30
(PID.TID 0000.0001) Creating Output Stream: diags/daily/surfChl5
(PID.TID 0000.0001) Output Frequency:      86400.000000 ; Phase:           0.000000
(PID.TID 0000.0001)  Averaging Freq.:      86400.000000 , Phase:           0.000000 , Cycle:   1
(PID.TID 0000.0001)  missing value: -9.990000000000E+02
(PID.TID 0000.0001)  Levels:       1.
(PID.TID 0000.0001)  Fields:    TRAC31
(PID.TID 0000.0001) Creating Output Stream: diags/daily/mldDepth
(PID.TID 0000.0001) Output Frequency:      86400.000000 ; Phase:           0.000000
(PID.TID 0000.0001)  Averaging Freq.:      86400.000000 , Phase:           0.000000 , Cycle:   1
(PID.TID 0000.0001)  missing value: -9.990000000000E+02
(PID.TID 0000.0001)  Levels:    will be set later
(PID.TID 0000.0001)  Fields:    MXLDEPTH
(PID.TID 0000.0001) Creating Output Stream: diags/monthly/THETA
(PID.TID 0000.0001) Output Frequency:    2635200.000000 ; Phase:           0.000000
(PID.TID 0000.0001)  Averaging Freq.:    2635200.000000 , Phase:           0.000000 , Cycle:   1
(PID.TID 0000.0001)  missing value: -9.990000000000E+02
(PID.TID 0000.0001)  Levels:    will be set later
(PID.TID 0000.0001)  Fields:    THETA
(PID.TID 0000.0001) Creating Output Stream: diags/monthly/SALTanom
(PID.TID 0000.0001) Output Frequency:    2635200.000000 ; Phase:           0.000000
(PID.TID 0000.0001)  Averaging Freq.:    2635200.000000 , Phase:           0.000000 , Cycle:   1
(PID.TID 0000.0001)  missing value: -9.990000000000E+02
(PID.TID 0000.0001)  Levels:    will be set later
(PID.TID 0000.0001)  Fields:    SALTanom
(PID.TID 0000.0001) Creating Output Stream: diags/monthly/SST
(PID.TID 0000.0001) Output Frequency:    2635200.000000 ; Phase:           0.000000
(PID.TID 0000.0001)  Averaging Freq.:    2635200.000000 , Phase:           0.000000 , Cycle:   1
(PID.TID 0000.0001)  missing value: -9.990000000000E+02
(PID.TID 0000.0001)  Levels:       1.
(PID.TID 0000.0001)  Fields:    THETA
(PID.TID 0000.0001) Creating Output Stream: diags/monthly/SSSanom
(PID.TID 0000.0001) Output Frequency:    2635200.000000 ; Phase:           0.000000
(PID.TID 0000.0001)  Averaging Freq.:    2635200.000000 , Phase:           0.000000 , Cycle:   1
(PID.TID 0000.0001)  missing value: -9.990000000000E+02
(PID.TID 0000.0001)  Levels:       1.
(PID.TID 0000.0001)  Fields:    SALTanom
(PID.TID 0000.0001) Creating Output Stream: diags/monthly/oceanQnet
(PID.TID 0000.0001) Output Frequency:    2635200.000000 ; Phase:           0.000000
(PID.TID 0000.0001)  Averaging Freq.:    2635200.000000 , Phase:           0.000000 , Cycle:   1
(PID.TID 0000.0001)  missing value: -9.990000000000E+02
(PID.TID 0000.0001)  Levels:    will be set later
(PID.TID 0000.0001)  Fields:    oceQnet
(PID.TID 0000.0001) Creating Output Stream: diags/monthly/wspeed
(PID.TID 0000.0001) Output Frequency:    2635200.000000 ; Phase:           0.000000
(PID.TID 0000.0001)  Averaging Freq.:    2635200.000000 , Phase:           0.000000 , Cycle:   1
(PID.TID 0000.0001)  missing value: -9.990000000000E+02
(PID.TID 0000.0001)  Levels:    will be set later
(PID.TID 0000.0001)  Fields:    EXFwspee
(PID.TID 0000.0001) Creating Output Stream: diags/monthly/wVel
(PID.TID 0000.0001) Output Frequency:    2635200.000000 ; Phase:           0.000000
(PID.TID 0000.0001)  Averaging Freq.:    2635200.000000 , Phase:           0.000000 , Cycle:   1
(PID.TID 0000.0001)  missing value: -9.990000000000E+02
(PID.TID 0000.0001)  Levels:    will be set later
(PID.TID 0000.0001)  Fields:    WVEL
(PID.TID 0000.0001) Creating Output Stream: diags/monthly/DIC
(PID.TID 0000.0001) Output Frequency:    2635200.000000 ; Phase:           0.000000
(PID.TID 0000.0001)  Averaging Freq.:    2635200.000000 , Phase:           0.000000 , Cycle:   1
(PID.TID 0000.0001)  missing value: -9.990000000000E+02
(PID.TID 0000.0001)  Levels:    will be set later
(PID.TID 0000.0001)  Fields:    TRAC01
(PID.TID 0000.0001) Creating Output Stream: diags/monthly/NO3
(PID.TID 0000.0001) Output Frequency:    2635200.000000 ; Phase:           0.000000
(PID.TID 0000.0001)  Averaging Freq.:    2635200.000000 , Phase:           0.000000 , Cycle:   1
(PID.TID 0000.0001)  missing value: -9.990000000000E+02
(PID.TID 0000.0001)  Levels:    will be set later
(PID.TID 0000.0001)  Fields:    TRAC02
(PID.TID 0000.0001) Creating Output Stream: diags/monthly/NO2
(PID.TID 0000.0001) Output Frequency:    2635200.000000 ; Phase:           0.000000
(PID.TID 0000.0001)  Averaging Freq.:    2635200.000000 , Phase:           0.000000 , Cycle:   1
(PID.TID 0000.0001)  missing value: -9.990000000000E+02
(PID.TID 0000.0001)  Levels:    will be set later
(PID.TID 0000.0001)  Fields:    TRAC03
(PID.TID 0000.0001) Creating Output Stream: diags/monthly/NH4
(PID.TID 0000.0001) Output Frequency:    2635200.000000 ; Phase:           0.000000
(PID.TID 0000.0001)  Averaging Freq.:    2635200.000000 , Phase:           0.000000 , Cycle:   1
(PID.TID 0000.0001)  missing value: -9.990000000000E+02
(PID.TID 0000.0001)  Levels:    will be set later
(PID.TID 0000.0001)  Fields:    TRAC04
(PID.TID 0000.0001) Creating Output Stream: diags/monthly/PO4
(PID.TID 0000.0001) Output Frequency:    2635200.000000 ; Phase:           0.000000
(PID.TID 0000.0001)  Averaging Freq.:    2635200.000000 , Phase:           0.000000 , Cycle:   1
(PID.TID 0000.0001)  missing value: -9.990000000000E+02
(PID.TID 0000.0001)  Levels:    will be set later
(PID.TID 0000.0001)  Fields:    TRAC05
(PID.TID 0000.0001) Creating Output Stream: diags/monthly/FeT
(PID.TID 0000.0001) Output Frequency:    2635200.000000 ; Phase:           0.000000
(PID.TID 0000.0001)  Averaging Freq.:    2635200.000000 , Phase:           0.000000 , Cycle:   1
(PID.TID 0000.0001)  missing value: -9.990000000000E+02
(PID.TID 0000.0001)  Levels:    will be set later
(PID.TID 0000.0001)  Fields:    TRAC06
(PID.TID 0000.0001) Creating Output Stream: diags/monthly/SiO2
(PID.TID 0000.0001) Output Frequency:    2635200.000000 ; Phase:           0.000000
(PID.TID 0000.0001)  Averaging Freq.:    2635200.000000 , Phase:           0.000000 , Cycle:   1
(PID.TID 0000.0001)  missing value: -9.990000000000E+02
(PID.TID 0000.0001)  Levels:    will be set later
(PID.TID 0000.0001)  Fields:    TRAC07
(PID.TID 0000.0001) Creating Output Stream: diags/monthly/DOC
(PID.TID 0000.0001) Output Frequency:    2635200.000000 ; Phase:           0.000000
(PID.TID 0000.0001)  Averaging Freq.:    2635200.000000 , Phase:           0.000000 , Cycle:   1
(PID.TID 0000.0001)  missing value: -9.990000000000E+02
(PID.TID 0000.0001)  Levels:    will be set later
(PID.TID 0000.0001)  Fields:    TRAC08
(PID.TID 0000.0001) Creating Output Stream: diags/monthly/DON
(PID.TID 0000.0001) Output Frequency:    2635200.000000 ; Phase:           0.000000
(PID.TID 0000.0001)  Averaging Freq.:    2635200.000000 , Phase:           0.000000 , Cycle:   1
(PID.TID 0000.0001)  missing value: -9.990000000000E+02
(PID.TID 0000.0001)  Levels:    will be set later
(PID.TID 0000.0001)  Fields:    TRAC09
(PID.TID 0000.0001) Creating Output Stream: diags/monthly/DOP
(PID.TID 0000.0001) Output Frequency:    2635200.000000 ; Phase:           0.000000
(PID.TID 0000.0001)  Averaging Freq.:    2635200.000000 , Phase:           0.000000 , Cycle:   1
(PID.TID 0000.0001)  missing value: -9.990000000000E+02
(PID.TID 0000.0001)  Levels:    will be set later
(PID.TID 0000.0001)  Fields:    TRAC10
(PID.TID 0000.0001) Creating Output Stream: diags/monthly/DOFe
(PID.TID 0000.0001) Output Frequency:    2635200.000000 ; Phase:           0.000000
(PID.TID 0000.0001)  Averaging Freq.:    2635200.000000 , Phase:           0.000000 , Cycle:   1
(PID.TID 0000.0001)  missing value: -9.990000000000E+02
(PID.TID 0000.0001)  Levels:    will be set later
(PID.TID 0000.0001)  Fields:    TRAC11
(PID.TID 0000.0001) Creating Output Stream: diags/monthly/POC
(PID.TID 0000.0001) Output Frequency:    2635200.000000 ; Phase:           0.000000
(PID.TID 0000.0001)  Averaging Freq.:    2635200.000000 , Phase:           0.000000 , Cycle:   1
(PID.TID 0000.0001)  missing value: -9.990000000000E+02
(PID.TID 0000.0001)  Levels:    will be set later
(PID.TID 0000.0001)  Fields:    TRAC12
(PID.TID 0000.0001) Creating Output Stream: diags/monthly/PON
(PID.TID 0000.0001) Output Frequency:    2635200.000000 ; Phase:           0.000000
(PID.TID 0000.0001)  Averaging Freq.:    2635200.000000 , Phase:           0.000000 , Cycle:   1
(PID.TID 0000.0001)  missing value: -9.990000000000E+02
(PID.TID 0000.0001)  Levels:    will be set later
(PID.TID 0000.0001)  Fields:    TRAC13
(PID.TID 0000.0001) Creating Output Stream: diags/monthly/POP
(PID.TID 0000.0001) Output Frequency:    2635200.000000 ; Phase:           0.000000
(PID.TID 0000.0001)  Averaging Freq.:    2635200.000000 , Phase:           0.000000 , Cycle:   1
(PID.TID 0000.0001)  missing value: -9.990000000000E+02
(PID.TID 0000.0001)  Levels:    will be set later
(PID.TID 0000.0001)  Fields:    TRAC14
(PID.TID 0000.0001) Creating Output Stream: diags/monthly/POFe
(PID.TID 0000.0001) Output Frequency:    2635200.000000 ; Phase:           0.000000
(PID.TID 0000.0001)  Averaging Freq.:    2635200.000000 , Phase:           0.000000 , Cycle:   1
(PID.TID 0000.0001)  missing value: -9.990000000000E+02
(PID.TID 0000.0001)  Levels:    will be set later
(PID.TID 0000.0001)  Fields:    TRAC15
(PID.TID 0000.0001) Creating Output Stream: diags/monthly/POSi
(PID.TID 0000.0001) Output Frequency:    2635200.000000 ; Phase:           0.000000
(PID.TID 0000.0001)  Averaging Freq.:    2635200.000000 , Phase:           0.000000 , Cycle:   1
(PID.TID 0000.0001)  missing value: -9.990000000000E+02
(PID.TID 0000.0001)  Levels:    will be set later
(PID.TID 0000.0001)  Fields:    TRAC16
(PID.TID 0000.0001) Creating Output Stream: diags/monthly/PIC
(PID.TID 0000.0001) Output Frequency:    2635200.000000 ; Phase:           0.000000
(PID.TID 0000.0001)  Averaging Freq.:    2635200.000000 , Phase:           0.000000 , Cycle:   1
(PID.TID 0000.0001)  missing value: -9.990000000000E+02
(PID.TID 0000.0001)  Levels:    will be set later
(PID.TID 0000.0001)  Fields:    TRAC17
(PID.TID 0000.0001) Creating Output Stream: diags/monthly/ALK
(PID.TID 0000.0001) Output Frequency:    2635200.000000 ; Phase:           0.000000
(PID.TID 0000.0001)  Averaging Freq.:    2635200.000000 , Phase:           0.000000 , Cycle:   1
(PID.TID 0000.0001)  missing value: -9.990000000000E+02
(PID.TID 0000.0001)  Levels:    will be set later
(PID.TID 0000.0001)  Fields:    TRAC18
(PID.TID 0000.0001) Creating Output Stream: diags/monthly/O2
(PID.TID 0000.0001) Output Frequency:    2635200.000000 ; Phase:           0.000000
(PID.TID 0000.0001)  Averaging Freq.:    2635200.000000 , Phase:           0.000000 , Cycle:   1
(PID.TID 0000.0001)  missing value: -9.990000000000E+02
(PID.TID 0000.0001)  Levels:    will be set later
(PID.TID 0000.0001)  Fields:    TRAC19
(PID.TID 0000.0001) Creating Output Stream: diags/monthly/c1
(PID.TID 0000.0001) Output Frequency:    2635200.000000 ; Phase:           0.000000
(PID.TID 0000.0001)  Averaging Freq.:    2635200.000000 , Phase:           0.000000 , Cycle:   1
(PID.TID 0000.0001)  missing value: -9.990000000000E+02
(PID.TID 0000.0001)  Levels:    will be set later
(PID.TID 0000.0001)  Fields:    TRAC20
(PID.TID 0000.0001) Creating Output Stream: diags/monthly/c2
(PID.TID 0000.0001) Output Frequency:    2635200.000000 ; Phase:           0.000000
(PID.TID 0000.0001)  Averaging Freq.:    2635200.000000 , Phase:           0.000000 , Cycle:   1
(PID.TID 0000.0001)  missing value: -9.990000000000E+02
(PID.TID 0000.0001)  Levels:    will be set later
(PID.TID 0000.0001)  Fields:    TRAC21
(PID.TID 0000.0001) Creating Output Stream: diags/monthly/c3
(PID.TID 0000.0001) Output Frequency:    2635200.000000 ; Phase:           0.000000
(PID.TID 0000.0001)  Averaging Freq.:    2635200.000000 , Phase:           0.000000 , Cycle:   1
(PID.TID 0000.0001)  missing value: -9.990000000000E+02
(PID.TID 0000.0001)  Levels:    will be set later
(PID.TID 0000.0001)  Fields:    TRAC22
(PID.TID 0000.0001) Creating Output Stream: diags/monthly/c4
(PID.TID 0000.0001) Output Frequency:    2635200.000000 ; Phase:           0.000000
(PID.TID 0000.0001)  Averaging Freq.:    2635200.000000 , Phase:           0.000000 , Cycle:   1
(PID.TID 0000.0001)  missing value: -9.990000000000E+02
(PID.TID 0000.0001)  Levels:    will be set later
(PID.TID 0000.0001)  Fields:    TRAC23
(PID.TID 0000.0001) Creating Output Stream: diags/monthly/c5
(PID.TID 0000.0001) Output Frequency:    2635200.000000 ; Phase:           0.000000
(PID.TID 0000.0001)  Averaging Freq.:    2635200.000000 , Phase:           0.000000 , Cycle:   1
(PID.TID 0000.0001)  missing value: -9.990000000000E+02
(PID.TID 0000.0001)  Levels:    will be set later
(PID.TID 0000.0001)  Fields:    TRAC24
(PID.TID 0000.0001) Creating Output Stream: diags/monthly/c6
(PID.TID 0000.0001) Output Frequency:    2635200.000000 ; Phase:           0.000000
(PID.TID 0000.0001)  Averaging Freq.:    2635200.000000 , Phase:           0.000000 , Cycle:   1
(PID.TID 0000.0001)  missing value: -9.990000000000E+02
(PID.TID 0000.0001)  Levels:    will be set later
(PID.TID 0000.0001)  Fields:    TRAC25
(PID.TID 0000.0001) Creating Output Stream: diags/monthly/c7
(PID.TID 0000.0001) Output Frequency:    2635200.000000 ; Phase:           0.000000
(PID.TID 0000.0001)  Averaging Freq.:    2635200.000000 , Phase:           0.000000 , Cycle:   1
(PID.TID 0000.0001)  missing value: -9.990000000000E+02
(PID.TID 0000.0001)  Levels:    will be set later
(PID.TID 0000.0001)  Fields:    TRAC26
(PID.TID 0000.0001) Creating Output Stream: diags/monthly/Chl1
(PID.TID 0000.0001) Output Frequency:    2635200.000000 ; Phase:           0.000000
(PID.TID 0000.0001)  Averaging Freq.:    2635200.000000 , Phase:           0.000000 , Cycle:   1
(PID.TID 0000.0001)  missing value: -9.990000000000E+02
(PID.TID 0000.0001)  Levels:    will be set later
(PID.TID 0000.0001)  Fields:    TRAC27
(PID.TID 0000.0001) Creating Output Stream: diags/monthly/Chl2
(PID.TID 0000.0001) Output Frequency:    2635200.000000 ; Phase:           0.000000
(PID.TID 0000.0001)  Averaging Freq.:    2635200.000000 , Phase:           0.000000 , Cycle:   1
(PID.TID 0000.0001)  missing value: -9.990000000000E+02
(PID.TID 0000.0001)  Levels:    will be set later
(PID.TID 0000.0001)  Fields:    TRAC28
(PID.TID 0000.0001) Creating Output Stream: diags/monthly/Chl3
(PID.TID 0000.0001) Output Frequency:    2635200.000000 ; Phase:           0.000000
(PID.TID 0000.0001)  Averaging Freq.:    2635200.000000 , Phase:           0.000000 , Cycle:   1
(PID.TID 0000.0001)  missing value: -9.990000000000E+02
(PID.TID 0000.0001)  Levels:    will be set later
(PID.TID 0000.0001)  Fields:    TRAC29
(PID.TID 0000.0001) Creating Output Stream: diags/monthly/Chl4
(PID.TID 0000.0001) Output Frequency:    2635200.000000 ; Phase:           0.000000
(PID.TID 0000.0001)  Averaging Freq.:    2635200.000000 , Phase:           0.000000 , Cycle:   1
(PID.TID 0000.0001)  missing value: -9.990000000000E+02
(PID.TID 0000.0001)  Levels:    will be set later
(PID.TID 0000.0001)  Fields:    TRAC30
(PID.TID 0000.0001) Creating Output Stream: diags/monthly/Chl5
(PID.TID 0000.0001) Output Frequency:    2635200.000000 ; Phase:           0.000000
(PID.TID 0000.0001)  Averaging Freq.:    2635200.000000 , Phase:           0.000000 , Cycle:   1
(PID.TID 0000.0001)  missing value: -9.990000000000E+02
(PID.TID 0000.0001)  Levels:    will be set later
(PID.TID 0000.0001)  Fields:    TRAC31
(PID.TID 0000.0001) Creating Output Stream: diags/monthly/PAR
(PID.TID 0000.0001) Output Frequency:    2635200.000000 ; Phase:           0.000000
(PID.TID 0000.0001)  Averaging Freq.:    2635200.000000 , Phase:           0.000000 , Cycle:   1
(PID.TID 0000.0001)  missing value: -9.990000000000E+02
(PID.TID 0000.0001)  Levels:    will be set later
(PID.TID 0000.0001)  Fields:    PAR
(PID.TID 0000.0001) Creating Output Stream: diags/monthly/primProd
(PID.TID 0000.0001) Output Frequency:    2635200.000000 ; Phase:           0.000000
(PID.TID 0000.0001)  Averaging Freq.:    2635200.000000 , Phase:           0.000000 , Cycle:   1
(PID.TID 0000.0001)  missing value: -9.990000000000E+02
(PID.TID 0000.0001)  Levels:    will be set later
(PID.TID 0000.0001)  Fields:    PP
(PID.TID 0000.0001) Creating Output Stream: diags/monthly/CO2_flux
(PID.TID 0000.0001) Output Frequency:    2635200.000000 ; Phase:           0.000000
(PID.TID 0000.0001)  Averaging Freq.:    2635200.000000 , Phase:           0.000000 , Cycle:   1
(PID.TID 0000.0001)  missing value: -9.990000000000E+02
(PID.TID 0000.0001)  Levels:    will be set later
(PID.TID 0000.0001)  Fields:    fluxCO2
(PID.TID 0000.0001) Creating Output Stream: diags/monthly/O2_flux
(PID.TID 0000.0001) Output Frequency:    2635200.000000 ; Phase:           0.000000
(PID.TID 0000.0001)  Averaging Freq.:    2635200.000000 , Phase:           0.000000 , Cycle:   1
(PID.TID 0000.0001)  missing value: -9.990000000000E+02
(PID.TID 0000.0001)  Levels:    will be set later
(PID.TID 0000.0001)  Fields:    gO2surf
(PID.TID 0000.0001) Creating Output Stream: diags/monthly/fugfCO2
(PID.TID 0000.0001) Output Frequency:    2635200.000000 ; Phase:           0.000000
(PID.TID 0000.0001)  Averaging Freq.:    2635200.000000 , Phase:           0.000000 , Cycle:   1
(PID.TID 0000.0001)  missing value: -9.990000000000E+02
(PID.TID 0000.0001)  Levels:    will be set later
(PID.TID 0000.0001)  Fields:    fugfCO2
(PID.TID 0000.0001) Creating Output Stream: diags/monthly/fCO2
(PID.TID 0000.0001) Output Frequency:    2635200.000000 ; Phase:           0.000000
(PID.TID 0000.0001)  Averaging Freq.:    2635200.000000 , Phase:           0.000000 , Cycle:   1
(PID.TID 0000.0001)  missing value: -9.990000000000E+02
(PID.TID 0000.0001)  Levels:    will be set later
(PID.TID 0000.0001)  Fields:    fCO2
(PID.TID 0000.0001) Creating Output Stream: diags/monthly/pCO2
(PID.TID 0000.0001) Output Frequency:    2635200.000000 ; Phase:           0.000000
(PID.TID 0000.0001)  Averaging Freq.:    2635200.000000 , Phase:           0.000000 , Cycle:   1
(PID.TID 0000.0001)  missing value: -9.990000000000E+02
(PID.TID 0000.0001)  Levels:    will be set later
(PID.TID 0000.0001)  Fields:    pCO2
(PID.TID 0000.0001) Creating Output Stream: diags/monthly/apCO2
(PID.TID 0000.0001) Output Frequency:    2635200.000000 ; Phase:           0.000000
(PID.TID 0000.0001)  Averaging Freq.:    2635200.000000 , Phase:           0.000000 , Cycle:   1
(PID.TID 0000.0001)  missing value: -9.990000000000E+02
(PID.TID 0000.0001)  Levels:    will be set later
(PID.TID 0000.0001)  Fields:    apCO2
(PID.TID 0000.0001) Creating Output Stream: diags/monthly/apCO2sat
(PID.TID 0000.0001) Output Frequency:    2635200.000000 ; Phase:           0.000000
(PID.TID 0000.0001)  Averaging Freq.:    2635200.000000 , Phase:           0.000000 , Cycle:   1
(PID.TID 0000.0001)  missing value: -9.990000000000E+02
(PID.TID 0000.0001)  Levels:    will be set later
(PID.TID 0000.0001)  Fields:    apCO2sat
(PID.TID 0000.0001) Creating Output Stream: diags/monthly/pH
(PID.TID 0000.0001) Output Frequency:    2635200.000000 ; Phase:           0.000000
(PID.TID 0000.0001)  Averaging Freq.:    2635200.000000 , Phase:           0.000000 , Cycle:   1
(PID.TID 0000.0001)  missing value: -9.990000000000E+02
(PID.TID 0000.0001)  Levels:    will be set later
(PID.TID 0000.0001)  Fields:    pH
(PID.TID 0000.0001) -----------------------------------------------------
(PID.TID 0000.0001)  DIAGNOSTICS_READPARMS: statistics diags. summary:
(PID.TID 0000.0001) -----------------------------------------------------
(PID.TID 0000.0001) 
(PID.TID 0000.0001) SET_PARMS: done
(PID.TID 0000.0001) S/R LOAD_GRID_SPACING: delY loaded from file: delYFile
(PID.TID 0000.0001) Enter INI_VERTICAL_GRID: setInterFDr=    T ; setCenterDr=    F
(PID.TID 0000.0001) %MON XC_max                       =   5.0499979469116E+01
(PID.TID 0000.0001) %MON XC_min                       =   2.9500000469116E+01
(PID.TID 0000.0001) %MON XC_mean                      =   3.9999989969116E+01
(PID.TID 0000.0001) %MON XC_sd                        =   6.1576449096527E+00
(PID.TID 0000.0001) %MON XG_max                       =   5.0333312969116E+01
(PID.TID 0000.0001) %MON XG_min                       =   2.9333333969116E+01
(PID.TID 0000.0001) %MON XG_mean                      =   3.9833323469116E+01
(PID.TID 0000.0001) %MON XG_sd                        =   6.1576449096527E+00
(PID.TID 0000.0001) %MON DXC_max                      =   3.6498481623291E+04
(PID.TID 0000.0001) %MON DXC_min                      =   3.2000876713497E+04
(PID.TID 0000.0001) %MON DXC_mean                     =   3.4557060538061E+04
(PID.TID 0000.0001) %MON DXC_sd                       =   1.3370199418236E+03
(PID.TID 0000.0001) %MON DXF_max                      =   3.6498481623291E+04
(PID.TID 0000.0001) %MON DXF_min                      =   3.2000876713497E+04
[...]
(PID.TID 0000.0001) %MON trcstat_ptracer24_del2       =   3.1123165808478E-04
(PID.TID 0000.0001) %MON trcstat_ptracer25_max        =   7.0934103833618E+00
(PID.TID 0000.0001) %MON trcstat_ptracer25_min        =  -1.4525309357879E-03
(PID.TID 0000.0001) %MON trcstat_ptracer25_mean       =   1.8645996862557E-01
(PID.TID 0000.0001) %MON trcstat_ptracer25_sd         =   6.3712455433369E-01
(PID.TID 0000.0001) %MON trcstat_ptracer25_del2       =   1.5161284568481E-03
(PID.TID 0000.0001) %MON trcstat_ptracer26_max        =   2.1075572993848E+01
(PID.TID 0000.0001) %MON trcstat_ptracer26_min        =  -1.4035185956349E-02
(PID.TID 0000.0001) %MON trcstat_ptracer26_mean       =   3.8762183744185E-01
(PID.TID 0000.0001) %MON trcstat_ptracer26_sd         =   1.3601327515980E+00
(PID.TID 0000.0001) %MON trcstat_ptracer26_del2       =   4.3085974283144E-03
(PID.TID 0000.0001) %MON trcstat_ptracer27_max        =   2.9202448807221E+00
(PID.TID 0000.0001) %MON trcstat_ptracer27_min        =  -8.7787978341055E-03
(PID.TID 0000.0001) %MON trcstat_ptracer27_mean       =   5.2040512253003E-02
(PID.TID 0000.0001) %MON trcstat_ptracer27_sd         =   2.0891847679956E-01
(PID.TID 0000.0001) %MON trcstat_ptracer27_del2       =   9.5221166816445E-04
(PID.TID 0000.0001) %MON trcstat_ptracer28_max        =   3.0505799517709E+00
(PID.TID 0000.0001) %MON trcstat_ptracer28_min        =  -1.6798752688541E-02
(PID.TID 0000.0001) %MON trcstat_ptracer28_mean       =   4.9682656520681E-02
(PID.TID 0000.0001) %MON trcstat_ptracer28_sd         =   1.7503685819083E-01
(PID.TID 0000.0001) %MON trcstat_ptracer28_del2       =   1.1053453807244E-03
(PID.TID 0000.0001) %MON trcstat_ptracer29_max        =   8.4689461804184E-01
(PID.TID 0000.0001) %MON trcstat_ptracer29_min        =  -4.1036143496720E-04
(PID.TID 0000.0001) %MON trcstat_ptracer29_mean       =   9.4894346256343E-03
(PID.TID 0000.0001) %MON trcstat_ptracer29_sd         =   4.3819349720587E-02
(PID.TID 0000.0001) %MON trcstat_ptracer29_del2       =   1.8712214611211E-04
(PID.TID 0000.0001) %MON trcstat_ptracer30_max        =   2.6123626333191E-06
(PID.TID 0000.0001) %MON trcstat_ptracer30_min        =  -3.4527025548775E-11
(PID.TID 0000.0001) %MON trcstat_ptracer30_mean       =   7.7151191570540E-10
(PID.TID 0000.0001) %MON trcstat_ptracer30_sd         =   1.7578218198874E-08
(PID.TID 0000.0001) %MON trcstat_ptracer30_del2       =   2.0784167114358E-10
(PID.TID 0000.0001) %MON trcstat_ptracer31_max        =   6.2207880130684E-02
(PID.TID 0000.0001) %MON trcstat_ptracer31_min        =  -2.3580912979969E-04
(PID.TID 0000.0001) %MON trcstat_ptracer31_mean       =   3.3752826915460E-03
(PID.TID 0000.0001) %MON trcstat_ptracer31_sd         =   1.0165984655903E-02
(PID.TID 0000.0001) %MON trcstat_ptracer31_del2       =   2.8488575878075E-05
(PID.TID 0000.0001) // =======================================================
(PID.TID 0000.0001) // End MONITOR ptracer field statistics
(PID.TID 0000.0001) // =======================================================
(PID.TID 0000.0001) %CHECKPOINT        72 ckptA
(PID.TID 0000.0001)   Seconds in section "ALL                    [THE_MODEL_MAIN]":
(PID.TID 0000.0001)           User time:   7.0480898288078606
(PID.TID 0000.0001)         System time:  0.47652600519359112
(PID.TID 0000.0001)     Wall clock time:   8.5071249008178711
(PID.TID 0000.0001)          No. starts:           1
(PID.TID 0000.0001)           No. stops:           1
(PID.TID 0000.0001)   Seconds in section "INITIALISE_FIXED       [THE_MODEL_MAIN]":
(PID.TID 0000.0001)           User time:  0.16794899618253112
(PID.TID 0000.0001)         System time:   3.4368999302387238E-002
(PID.TID 0000.0001)     Wall clock time:  0.25323104858398438
(PID.TID 0000.0001)          No. starts:           1
(PID.TID 0000.0001)           No. stops:           1
(PID.TID 0000.0001)   Seconds in section "THE_MAIN_LOOP          [THE_MODEL_MAIN]":
(PID.TID 0000.0001)           User time:   6.8801299631595612
(PID.TID 0000.0001)         System time:  0.44215400516986847
(PID.TID 0000.0001)     Wall clock time:   8.2538812160491943
(PID.TID 0000.0001)          No. starts:           1
(PID.TID 0000.0001)           No. stops:           1
(PID.TID 0000.0001)   Seconds in section "INITIALISE_VARIA    [THE_MAIN_LOOP]":
(PID.TID 0000.0001)           User time:   3.3902004361152649E-002
(PID.TID 0000.0001)         System time:   3.6035001277923584E-002
(PID.TID 0000.0001)     Wall clock time:  0.13248515129089355
(PID.TID 0000.0001)          No. starts:           1
(PID.TID 0000.0001)           No. stops:           1
(PID.TID 0000.0001)   Seconds in section "MAIN LOOP           [THE_MAIN_LOOP]":
(PID.TID 0000.0001)           User time:   6.8462151587009430
(PID.TID 0000.0001)         System time:  0.40611800551414490
(PID.TID 0000.0001)     Wall clock time:   8.1213829517364502
(PID.TID 0000.0001)          No. starts:           1
(PID.TID 0000.0001)           No. stops:           1
(PID.TID 0000.0001)   Seconds in section "MAIN_DO_LOOP        [THE_MAIN_LOOP]":
(PID.TID 0000.0001)           User time:   6.8459540307521820
(PID.TID 0000.0001)         System time:  0.40610992908477783
(PID.TID 0000.0001)     Wall clock time:   8.1211061477661133
(PID.TID 0000.0001)          No. starts:          72
(PID.TID 0000.0001)           No. stops:          72
(PID.TID 0000.0001)   Seconds in section "FORWARD_STEP        [MAIN_DO_LOOP]":
(PID.TID 0000.0001)           User time:   6.8454415798187256
(PID.TID 0000.0001)         System time:  0.40607295185327530
(PID.TID 0000.0001)     Wall clock time:   8.1205568313598633
(PID.TID 0000.0001)          No. starts:          72
(PID.TID 0000.0001)           No. stops:          72
(PID.TID 0000.0001)   Seconds in section "DO_STATEVARS_DIAGS  [FORWARD_STEP]":
(PID.TID 0000.0001)           User time:  0.12421365082263947
(PID.TID 0000.0001)         System time:   1.6204267740249634E-004
(PID.TID 0000.0001)     Wall clock time:  0.12499570846557617
(PID.TID 0000.0001)          No. starts:         216
(PID.TID 0000.0001)           No. stops:         216
(PID.TID 0000.0001)   Seconds in section "LOAD_FIELDS_DRIVER  [FORWARD_STEP]":
(PID.TID 0000.0001)           User time:   3.0086100101470947E-002
(PID.TID 0000.0001)         System time:   1.9376046955585480E-002
(PID.TID 0000.0001)     Wall clock time:   9.7882270812988281E-002
(PID.TID 0000.0001)          No. starts:          72
(PID.TID 0000.0001)           No. stops:          72
(PID.TID 0000.0001)   Seconds in section "EXF_GETFORCING     [LOAD_FLDS_DRIVER]":
(PID.TID 0000.0001)           User time:   2.2583603858947754E-002
(PID.TID 0000.0001)         System time:   1.5483036637306213E-002
(PID.TID 0000.0001)     Wall clock time:   7.4554443359375000E-002
(PID.TID 0000.0001)          No. starts:          72
(PID.TID 0000.0001)           No. stops:          72
(PID.TID 0000.0001)   Seconds in section "EXTERNAL_FLDS_LOAD [LOAD_FLDS_DRIVER]":
(PID.TID 0000.0001)           User time:   2.6702880859375000E-004
(PID.TID 0000.0001)         System time:   1.3992190361022949E-005
(PID.TID 0000.0001)     Wall clock time:   2.7990341186523438E-004
(PID.TID 0000.0001)          No. starts:          72
(PID.TID 0000.0001)           No. stops:          72
(PID.TID 0000.0001)   Seconds in section "DO_ATMOSPHERIC_PHYS [FORWARD_STEP]":
(PID.TID 0000.0001)           User time:   2.6309490203857422E-004
(PID.TID 0000.0001)         System time:   1.5936791896820068E-005
(PID.TID 0000.0001)     Wall clock time:   2.7751922607421875E-004
(PID.TID 0000.0001)          No. starts:          72
(PID.TID 0000.0001)           No. stops:          72
(PID.TID 0000.0001)   Seconds in section "DO_OCEANIC_PHYS     [FORWARD_STEP]":
(PID.TID 0000.0001)           User time:  0.23567855358123779
(PID.TID 0000.0001)         System time:   1.0330826044082642E-003
(PID.TID 0000.0001)     Wall clock time:  0.23765873908996582
(PID.TID 0000.0001)          No. starts:          72
(PID.TID 0000.0001)           No. stops:          72
(PID.TID 0000.0001)   Seconds in section "GGL90_CALC [DO_OCEANIC_PHYS]":
(PID.TID 0000.0001)           User time:   8.2110121846199036E-002
(PID.TID 0000.0001)         System time:   5.9412419795989990E-004
(PID.TID 0000.0001)     Wall clock time:   8.3204984664916992E-002
(PID.TID 0000.0001)          No. starts:          72
(PID.TID 0000.0001)           No. stops:          72
(PID.TID 0000.0001)   Seconds in section "GCHEM_CALC_TENDENCY [FORWARD_STEP]":
(PID.TID 0000.0001)           User time:   2.5616586208343506E-004
(PID.TID 0000.0001)         System time:   9.9614262580871582E-006
(PID.TID 0000.0001)     Wall clock time:   2.6607513427734375E-004
(PID.TID 0000.0001)          No. starts:          72
(PID.TID 0000.0001)           No. stops:          72
(PID.TID 0000.0001)   Seconds in section "DYNAMICS            [FORWARD_STEP]":
(PID.TID 0000.0001)           User time:  0.30152213573455811
(PID.TID 0000.0001)         System time:   5.0301849842071533E-004
(PID.TID 0000.0001)     Wall clock time:  0.30428075790405273
(PID.TID 0000.0001)          No. starts:          72
(PID.TID 0000.0001)           No. stops:          72
(PID.TID 0000.0001)   Seconds in section "UPDATE_R_STAR       [FORWARD_STEP]":
(PID.TID 0000.0001)           User time:   7.7988505363464355E-003
(PID.TID 0000.0001)         System time:   1.2025237083435059E-005
(PID.TID 0000.0001)     Wall clock time:   7.8451633453369141E-003
(PID.TID 0000.0001)          No. starts:          72
(PID.TID 0000.0001)           No. stops:          72
(PID.TID 0000.0001)   Seconds in section "UPDATE_CG2D         [FORWARD_STEP]":
(PID.TID 0000.0001)           User time:   1.7715543508529663E-002
(PID.TID 0000.0001)         System time:   1.3394929468631744E-002
(PID.TID 0000.0001)     Wall clock time:   6.2679767608642578E-002
(PID.TID 0000.0001)          No. starts:          72
(PID.TID 0000.0001)           No. stops:          72
(PID.TID 0000.0001)   Seconds in section "SOLVE_FOR_PRESSURE  [FORWARD_STEP]":
(PID.TID 0000.0001)           User time:  0.17549775540828705
(PID.TID 0000.0001)         System time:  0.11556801944971085
(PID.TID 0000.0001)     Wall clock time:  0.55887889862060547
(PID.TID 0000.0001)          No. starts:          72
(PID.TID 0000.0001)           No. stops:          72
(PID.TID 0000.0001)   Seconds in section "MOM_CORRECTION_STEP [FORWARD_STEP]":
(PID.TID 0000.0001)           User time:   9.5722228288650513E-003
(PID.TID 0000.0001)         System time:   3.4973025321960449E-005
(PID.TID 0000.0001)     Wall clock time:   9.7088813781738281E-003
(PID.TID 0000.0001)          No. starts:          72
(PID.TID 0000.0001)           No. stops:          72
(PID.TID 0000.0001)   Seconds in section "INTEGR_CONTINUITY   [FORWARD_STEP]":
(PID.TID 0000.0001)           User time:   1.3304039835929871E-002
(PID.TID 0000.0001)         System time:   1.7898976802825928E-003
(PID.TID 0000.0001)     Wall clock time:   1.9041061401367188E-002
(PID.TID 0000.0001)          No. starts:          72
(PID.TID 0000.0001)           No. stops:          72
(PID.TID 0000.0001)   Seconds in section "CALC_R_STAR         [FORWARD_STEP]":
(PID.TID 0000.0001)           User time:   3.7604421377182007E-003
(PID.TID 0000.0001)         System time:   1.4440268278121948E-003
(PID.TID 0000.0001)     Wall clock time:   8.8136196136474609E-003
(PID.TID 0000.0001)          No. starts:          72
(PID.TID 0000.0001)           No. stops:          72
(PID.TID 0000.0001)   Seconds in section "BLOCKING_EXCHANGES  [FORWARD_STEP]":
(PID.TID 0000.0001)           User time:  0.31969372928142548
(PID.TID 0000.0001)         System time:   9.8862878978252411E-002
(PID.TID 0000.0001)     Wall clock time:  0.69458317756652832
(PID.TID 0000.0001)          No. starts:         144
(PID.TID 0000.0001)           No. stops:         144
(PID.TID 0000.0001)   Seconds in section "THERMODYNAMICS      [FORWARD_STEP]":
(PID.TID 0000.0001)           User time:   5.1623490899801254
(PID.TID 0000.0001)         System time:   4.6950057148933411E-003
(PID.TID 0000.0001)     Wall clock time:   5.2171952724456787
(PID.TID 0000.0001)          No. starts:          72
(PID.TID 0000.0001)           No. stops:          72
(PID.TID 0000.0001)   Seconds in section "TRC_CORRECTION_STEP [FORWARD_STEP]":
(PID.TID 0000.0001)           User time:   2.6479363441467285E-004
(PID.TID 0000.0001)         System time:   1.1026859283447266E-005
(PID.TID 0000.0001)     Wall clock time:   2.8014183044433594E-004
(PID.TID 0000.0001)          No. starts:          72
(PID.TID 0000.0001)           No. stops:          72
(PID.TID 0000.0001)   Seconds in section "GCHEM_FORCING_SEP  [FORWARD_STEP]":
(PID.TID 0000.0001)           User time:  0.28923168778419495
(PID.TID 0000.0001)         System time:   3.3990740776062012E-003
(PID.TID 0000.0001)     Wall clock time:  0.29316210746765137
(PID.TID 0000.0001)          No. starts:          72
(PID.TID 0000.0001)           No. stops:          72
(PID.TID 0000.0001)   Seconds in section "DARWIN_FORCING [GCHEM_FORCING_SEP]":
(PID.TID 0000.0001)           User time:  0.28720623254776001
(PID.TID 0000.0001)         System time:   3.3630728721618652E-003
(PID.TID 0000.0001)     Wall clock time:  0.29110932350158691
(PID.TID 0000.0001)          No. starts:          72
(PID.TID 0000.0001)           No. stops:          72
(PID.TID 0000.0001)   Seconds in section "DARWIN_LIGHT [DARWIN_FORCING]":
(PID.TID 0000.0001)           User time:   1.5391558408737183E-002
(PID.TID 0000.0001)         System time:   1.3597309589385986E-004
(PID.TID 0000.0001)     Wall clock time:   1.5491247177124023E-002
(PID.TID 0000.0001)          No. starts:          72
(PID.TID 0000.0001)           No. stops:          72
(PID.TID 0000.0001)   Seconds in section "DARWIN_SURFFORCING [DARWIN_FORCING]":
(PID.TID 0000.0001)           User time:   1.4476776123046875E-002
(PID.TID 0000.0001)         System time:   6.4939260482788086E-005
(PID.TID 0000.0001)     Wall clock time:   1.4576196670532227E-002
(PID.TID 0000.0001)          No. starts:          72
(PID.TID 0000.0001)           No. stops:          72
(PID.TID 0000.0001)   Seconds in section "DARWIN_FE_CHEM [DARWIN_FORCING]":
(PID.TID 0000.0001)           User time:   4.4733285903930664E-003
(PID.TID 0000.0001)         System time:   5.4068863391876221E-005
(PID.TID 0000.0001)     Wall clock time:   4.5626163482666016E-003
(PID.TID 0000.0001)          No. starts:         144
(PID.TID 0000.0001)           No. stops:         144
(PID.TID 0000.0001)   Seconds in section "DARWIN_FE_DUST [DARWIN_FORCING]":
(PID.TID 0000.0001)           User time:   3.0273199081420898E-004
(PID.TID 0000.0001)         System time:   1.4990568161010742E-005
(PID.TID 0000.0001)     Wall clock time:   3.1518936157226562E-004
(PID.TID 0000.0001)          No. starts:          72
(PID.TID 0000.0001)           No. stops:          72
(PID.TID 0000.0001)   Seconds in section "DARWIN_FE_SCAV [DARWIN_FORCING]":
(PID.TID 0000.0001)           User time:   5.0151944160461426E-003
(PID.TID 0000.0001)         System time:   1.6987323760986328E-005
(PID.TID 0000.0001)     Wall clock time:   5.0394535064697266E-003
(PID.TID 0000.0001)          No. starts:          72
(PID.TID 0000.0001)           No. stops:          72
(PID.TID 0000.0001)   Seconds in section "DARWIN_FE_SED [DARWIN_FORCING]":
(PID.TID 0000.0001)           User time:   1.1020302772521973E-003
(PID.TID 0000.0001)         System time:   1.5005469322204590E-005
(PID.TID 0000.0001)     Wall clock time:   1.1262893676757812E-003
(PID.TID 0000.0001)          No. starts:          72
(PID.TID 0000.0001)           No. stops:          72
(PID.TID 0000.0001)   Seconds in section "DARWIN_PLANKTON [DARWIN_FORCING]":
(PID.TID 0000.0001)           User time:   1.5897154808044434E-003
(PID.TID 0000.0001)         System time:   1.2993812561035156E-005
(PID.TID 0000.0001)     Wall clock time:   1.6129016876220703E-003
(PID.TID 0000.0001)          No. starts:          72
(PID.TID 0000.0001)           No. stops:          72
(PID.TID 0000.0001)   Seconds in section "DARWIN_SINKING [DARWIN_FORCING]":
(PID.TID 0000.0001)           User time:   2.7937591075897217E-003
(PID.TID 0000.0001)         System time:   1.2934207916259766E-005
(PID.TID 0000.0001)     Wall clock time:   2.8102397918701172E-003
(PID.TID 0000.0001)          No. starts:          72
(PID.TID 0000.0001)           No. stops:          72
(PID.TID 0000.0001)   Seconds in section "DARWIN_STEP [DARWIN_FORCING]":
(PID.TID 0000.0001)           User time:   6.7140102386474609E-002
(PID.TID 0000.0001)         System time:   2.7053058147430420E-005
(PID.TID 0000.0001)     Wall clock time:   6.7275047302246094E-002
(PID.TID 0000.0001)          No. starts:          72
(PID.TID 0000.0001)           No. stops:          72
(PID.TID 0000.0001)   Seconds in section "DIAGS_FILL [DARWIN_FORCING]":
(PID.TID 0000.0001)           User time:  0.13376781344413757
(PID.TID 0000.0001)         System time:   1.7569363117218018E-003
(PID.TID 0000.0001)     Wall clock time:  0.13613057136535645
(PID.TID 0000.0001)          No. starts:          72
(PID.TID 0000.0001)           No. stops:          72
(PID.TID 0000.0001)   Seconds in section "MONITOR             [FORWARD_STEP]":
(PID.TID 0000.0001)           User time:   5.6400597095489502E-003
(PID.TID 0000.0001)         System time:   2.9799640178680420E-003
(PID.TID 0000.0001)     Wall clock time:   1.4209032058715820E-002
(PID.TID 0000.0001)          No. starts:          72
(PID.TID 0000.0001)           No. stops:          72
(PID.TID 0000.0001)   Seconds in section "DO_THE_MODEL_IO     [FORWARD_STEP]":
(PID.TID 0000.0001)           User time:   7.5231730937957764E-002
(PID.TID 0000.0001)         System time:   7.4932001531124115E-002
(PID.TID 0000.0001)     Wall clock time:  0.24422955513000488
(PID.TID 0000.0001)          No. starts:          72
(PID.TID 0000.0001)           No. stops:          72
(PID.TID 0000.0001)   Seconds in section "PTRACERS_RESET      [FORWARD_STEP]":
(PID.TID 0000.0001)           User time:   2.7880072593688965E-004
(PID.TID 0000.0001)         System time:   1.3001263141632080E-005
(PID.TID 0000.0001)     Wall clock time:   2.9015541076660156E-004
(PID.TID 0000.0001)          No. starts:          72
(PID.TID 0000.0001)           No. stops:          72
(PID.TID 0000.0001)   Seconds in section "DO_WRITE_PICKUP     [FORWARD_STEP]":
(PID.TID 0000.0001)           User time:   6.6537171602249146E-002
(PID.TID 0000.0001)         System time:   6.6684976220130920E-002
(PID.TID 0000.0001)     Wall clock time:  0.21748280525207520
(PID.TID 0000.0001)          No. starts:          72
(PID.TID 0000.0001)           No. stops:          72
(PID.TID 0000.0001) // ======================================================
(PID.TID 0000.0001) // Tile <-> Tile communication statistics
(PID.TID 0000.0001) // ======================================================
(PID.TID 0000.0001) // o Tile number: 000001
(PID.TID 0000.0001) //         No. X exchanges =              0
(PID.TID 0000.0001) //            Max. X spins =              0
(PID.TID 0000.0001) //            Min. X spins =     1000000000
(PID.TID 0000.0001) //          Total. X spins =              0
(PID.TID 0000.0001) //            Avg. X spins =       0.00E+00
(PID.TID 0000.0001) //         No. Y exchanges =              0
(PID.TID 0000.0001) //            Max. Y spins =              0
(PID.TID 0000.0001) //            Min. Y spins =     1000000000
(PID.TID 0000.0001) //          Total. Y spins =              0
(PID.TID 0000.0001) //            Avg. Y spins =       0.00E+00
(PID.TID 0000.0001) // o Thread number: 000001
(PID.TID 0000.0001) //            No. barriers =          25474
(PID.TID 0000.0001) //      Max. barrier spins =              1
(PID.TID 0000.0001) //      Min. barrier spins =              1
(PID.TID 0000.0001) //     Total barrier spins =          25474
(PID.TID 0000.0001) //      Avg. barrier spins =       1.00E+00
PROGRAM MAIN: Execution ended Normally
