(PID.TID 0000.0001) 
(PID.TID 0000.0001) // ======================================================
(PID.TID 0000.0001) //                      MITgcm UV
(PID.TID 0000.0001) //                      =========
(PID.TID 0000.0001) // ======================================================
(PID.TID 0000.0001) // execution environment starting up...
(PID.TID 0000.0001) 
(PID.TID 0000.0001) // MITgcmUV version:  checkpoint66l
(PID.TID 0000.0001) // Build user:        dmenemen
(PID.TID 0000.0001) // Build host:        triton
(PID.TID 0000.0001) // Build date:        Wed Jan 22 17:24:31 PST 2020
(PID.TID 0000.0001) 
(PID.TID 0000.0001) // =======================================================
(PID.TID 0000.0001) // Execution Environment parameter file "eedata"
(PID.TID 0000.0001) // =======================================================
(PID.TID 0000.0001) ># Example "eedata" file
(PID.TID 0000.0001) ># Lines beginning "#" are comments
(PID.TID 0000.0001) ># nTx - No. threads per process in X
(PID.TID 0000.0001) ># nTy - No. threads per process in Y
(PID.TID 0000.0001) > &EEPARMS
(PID.TID 0000.0001) > nTx=1,
(PID.TID 0000.0001) > nTy=1,
(PID.TID 0000.0001) > /
(PID.TID 0000.0001) ># Note: Some systems use & as the
(PID.TID 0000.0001) ># namelist terminator. Other systems
(PID.TID 0000.0001) ># use a / character (as shown here).
(PID.TID 0000.0001) 
(PID.TID 0000.0001) // =======================================================
(PID.TID 0000.0001) // Computational Grid Specification ( see files "SIZE.h" )
(PID.TID 0000.0001) //                                  ( and "eedata"       )
(PID.TID 0000.0001) // =======================================================
(PID.TID 0000.0001)      nPx =    1 ; /* No. processes in X */
(PID.TID 0000.0001)      nPy =    1 ; /* No. processes in Y */
(PID.TID 0000.0001)      nSx =    2 ; /* No. tiles in X per process */
(PID.TID 0000.0001)      nSy =    2 ; /* No. tiles in Y per process */
(PID.TID 0000.0001)      sNx =   64 ; /* Tile size in X */
(PID.TID 0000.0001)      sNy =   32 ; /* Tile size in Y */
(PID.TID 0000.0001)      OLx =    4 ; /* Tile overlap distance in X */
(PID.TID 0000.0001)      OLy =    4 ; /* Tile overlap distance in Y */
(PID.TID 0000.0001)      nTx =    1 ; /* No. threads in X per process */
(PID.TID 0000.0001)      nTy =    1 ; /* No. threads in Y per process */
(PID.TID 0000.0001)       Nr =   15 ; /* No. levels in the vertical   */
(PID.TID 0000.0001)       Nx =  128 ; /* Total domain size in X ( = nPx*nSx*sNx ) */
(PID.TID 0000.0001)       Ny =   64 ; /* Total domain size in Y ( = nPy*nSy*sNy ) */
(PID.TID 0000.0001)   nTiles =    4 ; /* Total no. tiles per process ( = nSx*nSy ) */
(PID.TID 0000.0001)   nProcs =    1 ; /* Total no. processes ( = nPx*nPy ) */
(PID.TID 0000.0001) nThreads =    1 ; /* Total no. threads per process ( = nTx*nTy ) */
(PID.TID 0000.0001) usingMPI =    F ; /* Flag used to control whether MPI is in use */
(PID.TID 0000.0001)                   /*  note: To execute a program with MPI calls */
(PID.TID 0000.0001)                   /*  it must be launched appropriately e.g     */
(PID.TID 0000.0001)                   /*  "mpirun -np 64 ......"                    */
(PID.TID 0000.0001) useCoupler=    F ;/* Flag used to control communications with   */
(PID.TID 0000.0001)                   /*  other model components, through a coupler */
(PID.TID 0000.0001) debugMode =    F ; /* print debug msg. (sequence of S/R calls)  */
(PID.TID 0000.0001) printMapIncludesZeros=    F ; /* print zeros in Std.Output maps */
(PID.TID 0000.0001) maxLengthPrt1D=   65 /* maxLength of 1D array printed to StdOut */
(PID.TID 0000.0001) 
(PID.TID 0000.0001) // ======================================================
(PID.TID 0000.0001) // Mapping of tiles to threads
(PID.TID 0000.0001) // ======================================================
(PID.TID 0000.0001) // -o- Thread   1, tiles (   1:   2,   1:   2)
(PID.TID 0000.0001) 
(PID.TID 0000.0001) // ======================================================
(PID.TID 0000.0001) // Tile <-> Tile connectvity table
(PID.TID 0000.0001) // ======================================================
(PID.TID 0000.0001) // Tile number: 000001 (process no. = 000000)
(PID.TID 0000.0001) //        WEST: Tile = 000002, Process = 000000, Comm = put
(PID.TID 0000.0001) //                bi = 000002, bj = 000001
(PID.TID 0000.0001) //        EAST: Tile = 000002, Process = 000000, Comm = put
(PID.TID 0000.0001) //                bi = 000002, bj = 000001
(PID.TID 0000.0001) //       SOUTH: Tile = 000003, Process = 000000, Comm = put
(PID.TID 0000.0001) //                bi = 000001, bj = 000002
(PID.TID 0000.0001) //       NORTH: Tile = 000003, Process = 000000, Comm = put
(PID.TID 0000.0001) //                bi = 000001, bj = 000002
(PID.TID 0000.0001) // Tile number: 000002 (process no. = 000000)
(PID.TID 0000.0001) //        WEST: Tile = 000001, Process = 000000, Comm = put
(PID.TID 0000.0001) //                bi = 000001, bj = 000001
(PID.TID 0000.0001) //        EAST: Tile = 000001, Process = 000000, Comm = put
(PID.TID 0000.0001) //                bi = 000001, bj = 000001
(PID.TID 0000.0001) //       SOUTH: Tile = 000004, Process = 000000, Comm = put
(PID.TID 0000.0001) //                bi = 000002, bj = 000002
(PID.TID 0000.0001) //       NORTH: Tile = 000004, Process = 000000, Comm = put
(PID.TID 0000.0001) //                bi = 000002, bj = 000002
(PID.TID 0000.0001) // Tile number: 000003 (process no. = 000000)
(PID.TID 0000.0001) //        WEST: Tile = 000004, Process = 000000, Comm = put
(PID.TID 0000.0001) //                bi = 000002, bj = 000002
(PID.TID 0000.0001) //        EAST: Tile = 000004, Process = 000000, Comm = put
(PID.TID 0000.0001) //                bi = 000002, bj = 000002
(PID.TID 0000.0001) //       SOUTH: Tile = 000001, Process = 000000, Comm = put
(PID.TID 0000.0001) //                bi = 000001, bj = 000001
(PID.TID 0000.0001) //       NORTH: Tile = 000001, Process = 000000, Comm = put
(PID.TID 0000.0001) //                bi = 000001, bj = 000001
(PID.TID 0000.0001) // Tile number: 000004 (process no. = 000000)
(PID.TID 0000.0001) //        WEST: Tile = 000003, Process = 000000, Comm = put
(PID.TID 0000.0001) //                bi = 000001, bj = 000002
(PID.TID 0000.0001) //        EAST: Tile = 000003, Process = 000000, Comm = put
(PID.TID 0000.0001) //                bi = 000001, bj = 000002
(PID.TID 0000.0001) //       SOUTH: Tile = 000002, Process = 000000, Comm = put
(PID.TID 0000.0001) //                bi = 000002, bj = 000001
(PID.TID 0000.0001) //       NORTH: Tile = 000002, Process = 000000, Comm = put
(PID.TID 0000.0001) //                bi = 000002, bj = 000001
(PID.TID 0000.0001) 
(PID.TID 0000.0001)  INI_PARMS: opening model parameter file "data"
(PID.TID 0000.0001)  OPEN_COPY_DATA_FILE: opening file data
(PID.TID 0000.0001) // =======================================================
(PID.TID 0000.0001) // Parameter file "data"
(PID.TID 0000.0001) // =======================================================
(PID.TID 0000.0001) ># ====================
(PID.TID 0000.0001) ># | Model parameters |
(PID.TID 0000.0001) ># ====================
(PID.TID 0000.0001) >#
(PID.TID 0000.0001) ># Continuous equation parameters
(PID.TID 0000.0001) > &PARM01
(PID.TID 0000.0001) > tRef=15*20.,
(PID.TID 0000.0001) > sRef=15*35.,
(PID.TID 0000.0001) > viscA4=0.,
(PID.TID 0000.0001) > viscAh=2.E5,
(PID.TID 0000.0001) > diffKhT=0.E3,
(PID.TID 0000.0001) > diffKhS=0.E3,
(PID.TID 0000.0001) > viscAz=1.E-3,
(PID.TID 0000.0001) > diffKrBL79surf= 3.E-5,
(PID.TID 0000.0001) > diffKrBL79deep= 13.E-5,
(PID.TID 0000.0001) > diffKrBL79Ho  = -2000.,
(PID.TID 0000.0001) > diffKrBL79scl = 150.,
(PID.TID 0000.0001) > gravity=9.81,
(PID.TID 0000.0001) > rhoConst=1035.,
(PID.TID 0000.0001) > rhoConstFresh=1000.,
(PID.TID 0000.0001) > implicitFreeSurface=.TRUE.,
(PID.TID 0000.0001) > eosType='JMD95Z',
(PID.TID 0000.0001) > implicitDiffusion=.TRUE.,
(PID.TID 0000.0001) > implicitViscosity=.TRUE.,
(PID.TID 0000.0001) > ivdc_kappa=100.,
(PID.TID 0000.0001) > useSingleCpuIO=.TRUE.,
(PID.TID 0000.0001) > tempAdvScheme=2,
(PID.TID 0000.0001) > saltAdvScheme=2,
(PID.TID 0000.0001) ># turn on looped cells
(PID.TID 0000.0001) > hFacMin=.1,
(PID.TID 0000.0001) > hFacMindz=50.,
(PID.TID 0000.0001) > useCDscheme=.TRUE.,
(PID.TID 0000.0001) > debugLevel=5,
(PID.TID 0000.0001) > /
(PID.TID 0000.0001) >
(PID.TID 0000.0001) ># Elliptic solver parameters
(PID.TID 0000.0001) > &PARM02
(PID.TID 0000.0001) > cg2dMaxIters=1000,
(PID.TID 0000.0001) > cg2dTargetResidual=1.E-13,
(PID.TID 0000.0001) > /
(PID.TID 0000.0001) >
(PID.TID 0000.0001) ># Time stepping parameters
(PID.TID 0000.0001) > &PARM03
(PID.TID 0000.0001) > nIter0=0,
(PID.TID 0000.0001) > nTimeSteps = 4,
(PID.TID 0000.0001) > deltaTmom  = 900.,
(PID.TID 0000.0001) > tauCD =     321428.,
(PID.TID 0000.0001) > forcing_In_AB=.FALSE.,
(PID.TID 0000.0001) > momDissip_In_AB=.FALSE.,
(PID.TID 0000.0001) > pChkptFreq = 216000.,
(PID.TID 0000.0001) > periodicExternalForcing=.TRUE.,
(PID.TID 0000.0001) > externForcingPeriod=2592000.,
(PID.TID 0000.0001) > externForcingCycle=31104000.,
(PID.TID 0000.0001) > monitorFreq= 1.,
(PID.TID 0000.0001) > /
(PID.TID 0000.0001) >
(PID.TID 0000.0001) ># Gridding parameters
(PID.TID 0000.0001) > &PARM04
(PID.TID 0000.0001) > usingSphericalPolarGrid=.TRUE.,
(PID.TID 0000.0001) > delZ=  50., 70.,  100., 140., 190.,
(PID.TID 0000.0001) >       240., 290., 340., 390., 440.,
(PID.TID 0000.0001) >       490., 540., 590., 640., 690.,
(PID.TID 0000.0001) > ygOrigin=-90.,
(PID.TID 0000.0001) > delX=128*2.8125,
(PID.TID 0000.0001) > delY=64*2.8125,
(PID.TID 0000.0001) > /
(PID.TID 0000.0001) >
(PID.TID 0000.0001) ># Input datasets
(PID.TID 0000.0001) > &PARM05
(PID.TID 0000.0001) > bathyFile       = 'bathy.bin',
(PID.TID 0000.0001) > hydrogThetaFile = 'Theta.0005184000',
(PID.TID 0000.0001) > hydrogSaltFile  = 'Salt.0005184000',
(PID.TID 0000.0001) > uVelInitFile    = 'Uvel.0005184000',
(PID.TID 0000.0001) > vVelInitFile    = 'Vvel.0005184000',
(PID.TID 0000.0001) > pSurfInitFile   = 'Eta.0005184000',
(PID.TID 0000.0001) > /
(PID.TID 0000.0001) 
(PID.TID 0000.0001)  INI_PARMS ; starts to read PARM01
(PID.TID 0000.0001)  INI_PARMS ; read PARM01 : OK
(PID.TID 0000.0001)  INI_PARMS ; starts to read PARM02
(PID.TID 0000.0001)  INI_PARMS ; read PARM02 : OK
(PID.TID 0000.0001)  INI_PARMS ; starts to read PARM03
(PID.TID 0000.0001)  INI_PARMS ; read PARM03 : OK
(PID.TID 0000.0001)  INI_PARMS ; starts to read PARM04
(PID.TID 0000.0001)  INI_PARMS ; read PARM04 : OK
(PID.TID 0000.0001)  INI_PARMS ; starts to read PARM05
(PID.TID 0000.0001)  INI_PARMS ; read PARM05 : OK
(PID.TID 0000.0001)  INI_PARMS: finished reading file "data"
(PID.TID 0000.0001)  PACKAGES_BOOT: opening data.pkg
(PID.TID 0000.0001)  OPEN_COPY_DATA_FILE: opening file data.pkg
(PID.TID 0000.0001) // =======================================================
(PID.TID 0000.0001) // Parameter file "data.pkg"
(PID.TID 0000.0001) // =======================================================
(PID.TID 0000.0001) ># Packages
(PID.TID 0000.0001) > &PACKAGES
(PID.TID 0000.0001) > useEXF        = .TRUE.,
(PID.TID 0000.0001) > useCAL        = .TRUE.,
(PID.TID 0000.0001) > useGMRedi     = .TRUE.,
(PID.TID 0000.0001) > useSeaice     = .TRUE.,
(PID.TID 0000.0001) > useGGL90      = .TRUE.,
(PID.TID 0000.0001) > useSALT_PlUME =.TRUE.,
(PID.TID 0000.0001) > useDiagnostics=.TRUE.,
(PID.TID 0000.0001) > usePTRACERS   = .TRUE.,
(PID.TID 0000.0001) > useGCHEM      = .TRUE.,
(PID.TID 0000.0001) > /
(PID.TID 0000.0001) 
(PID.TID 0000.0001)  PACKAGES_BOOT: finished reading data.pkg
(PID.TID 0000.0001)  PACKAGES_BOOT: On/Off package Summary
 --------  pkgs with a standard "usePKG" On/Off switch in "data.pkg":  --------
 pkg/ggl90                compiled   and   used ( useGGL90                 = T )
 pkg/gmredi               compiled   and   used ( useGMRedi                = T )
 pkg/cal                  compiled   and   used ( useCAL                   = T )
 pkg/exf                  compiled   and   used ( useEXF                   = T )
 pkg/ptracers             compiled   and   used ( usePTRACERS              = T )
 pkg/gchem                compiled   and   used ( useGCHEM                 = T )
 pkg/seaice               compiled   and   used ( useSEAICE                = T )
 pkg/salt_plume           compiled   and   used ( useSALT_PLUME            = T )
 pkg/diagnostics          compiled   and   used ( useDiagnostics           = T )
 -------- pkgs without standard "usePKG" On/Off switch in "data.pkg":  --------
 pkg/generic_advdiff      compiled   and   used ( useGAD                   = T )
 pkg/mom_common           compiled   and   used ( momStepping              = T )
 pkg/mom_vecinv           compiled but not used ( +vectorInvariantMomentum = F )
 pkg/mom_fluxform         compiled   and   used ( & not vectorInvariantMom = T )
 pkg/cd_code              compiled   and   used ( useCDscheme              = T )
 pkg/monitor              compiled   and   used ( monitorFreq > 0.         = T )
 pkg/debug                compiled but not used ( debugMode                = F )
 pkg/rw                   compiled   and   used
 pkg/mdsio                compiled   and   used
(PID.TID 0000.0001)  PACKAGES_BOOT: End of package Summary
(PID.TID 0000.0001) 
(PID.TID 0000.0001) CAL_READPARMS: opening data.cal
(PID.TID 0000.0001)  OPEN_COPY_DATA_FILE: opening file data.cal
(PID.TID 0000.0001) // =======================================================
(PID.TID 0000.0001) // Parameter file "data.cal"
(PID.TID 0000.0001) // =======================================================
(PID.TID 0000.0001) >#
(PID.TID 0000.0001) ># *******************
(PID.TID 0000.0001) ># Calendar Parameters
(PID.TID 0000.0001) ># *******************
(PID.TID 0000.0001) > &CAL_NML
(PID.TID 0000.0001) > TheCalendar='gregorian',
(PID.TID 0000.0001) > startDate_1=19920101,
(PID.TID 0000.0001) ># startDate_2=120000,
(PID.TID 0000.0001) > startDate_2=000000,
(PID.TID 0000.0001) > calendarDumps = .TRUE.,
(PID.TID 0000.0001) > /
(PID.TID 0000.0001) 
(PID.TID 0000.0001) CAL_READPARMS: finished reading data.cal
(PID.TID 0000.0001) EXF_READPARMS: opening data.exf
(PID.TID 0000.0001)  OPEN_COPY_DATA_FILE: opening file data.exf
(PID.TID 0000.0001) // =======================================================
(PID.TID 0000.0001) // Parameter file "data.exf"
(PID.TID 0000.0001) // =======================================================
(PID.TID 0000.0001) ># *********************
(PID.TID 0000.0001) ># External Forcing Data
(PID.TID 0000.0001) ># *********************
(PID.TID 0000.0001) >#
(PID.TID 0000.0001) > &EXF_NML_01
(PID.TID 0000.0001) >#
(PID.TID 0000.0001) > useAtmWind        = .TRUE.,
(PID.TID 0000.0001) >#NCEP VALUES:
(PID.TID 0000.0001) ># exf_albedo        = 0.15,
(PID.TID 0000.0001) ># exf_scal_BulkCdn  = 1.015,
(PID.TID 0000.0001) >#
(PID.TID 0000.0001) >#TO COMBINE WITH ALLOW_ZENITH_ANGLE:
(PID.TID 0000.0001) > exf_albedo        = 0.1,
(PID.TID 0000.0001) > useExfZenIncoming = .TRUE.,
(PID.TID 0000.0001) > select_ZenAlbedo  = 1,
(PID.TID 0000.0001) >#
(PID.TID 0000.0001) > ocean_emissivity = 0.97,
(PID.TID 0000.0001) > ice_emissivity = 0.95,
(PID.TID 0000.0001) > snow_emissivity = 0.95,
(PID.TID 0000.0001) >#
(PID.TID 0000.0001) > exf_iprec         = 32,
(PID.TID 0000.0001) > exf_yftype        = 'RL',
(PID.TID 0000.0001) > useExfYearlyFields= .FALSE.,
(PID.TID 0000.0001) > useExfCheckRange  = .FALSE.,
(PID.TID 0000.0001) > /
(PID.TID 0000.0001) >#
(PID.TID 0000.0001) > &EXF_NML_02
(PID.TID 0000.0001) > atempfile         = 'EIG_tmp2m_degC_plus_ECCO_v4r1_ctrl_2000',
(PID.TID 0000.0001) > aqhfile           = 'EIG_spfh2m_plus_ECCO_v4r1_ctrl_2000',
(PID.TID 0000.0001) > precipfile        = 'EIG_rain_plus_ECCO_v4r1_ctrl_2000',
(PID.TID 0000.0001) > uwindfile         = 'EIG_u10m_2000',
(PID.TID 0000.0001) > vwindfile         = 'EIG_v10m_2000',
(PID.TID 0000.0001) > swdownfile        = 'EIG_dsw_plus_ECCO_v4r1_ctrl_2000',
(PID.TID 0000.0001) > lwdownfile        = 'EIG_dlw_plus_ECCO_v4r1_ctrl_2000',
(PID.TID 0000.0001) > runofffile        = 'runoff-2d-Fekete-1deg-mon-V4-SMOOTH.bin',
(PID.TID 0000.0001) > apco2file         = 'apCO2_2000',
(PID.TID 0000.0001) >#
(PID.TID 0000.0001) > atempperiod       = -12.,
(PID.TID 0000.0001) > aqhperiod         = -12.,
(PID.TID 0000.0001) > precipperiod      = -12.,
(PID.TID 0000.0001) > uwindperiod       = -12.,
(PID.TID 0000.0001) > vwindperiod       = -12.,
(PID.TID 0000.0001) > swdownperiod      = -12.,
(PID.TID 0000.0001) > lwdownperiod      = -12.,
(PID.TID 0000.0001) > runoffperiod      = -12,
(PID.TID 0000.0001) > apco2period       = -12.,
(PID.TID 0000.0001) > /
(PID.TID 0000.0001) >#
(PID.TID 0000.0001) > &EXF_NML_03
(PID.TID 0000.0001) >#NOT FOR EIG exf_offset_atemp  = 273.3971,
(PID.TID 0000.0001) > exf_offset_atemp  = 273.15,
(PID.TID 0000.0001) >#NOT FOR NEW RUNOFF FIELD exf_inscal_runoff = 3.1710e-08,
(PID.TID 0000.0001) > exf_inscal_swdown = -1.0,
(PID.TID 0000.0001) > exf_inscal_lwdown = -1.0,
(PID.TID 0000.0001) ># to compensate for sea level rise for nlfs/realFWF
(PID.TID 0000.0001) >#precip_exfremo_intercept = 1.073E-9,
(PID.TID 0000.0001) >#precip_exfremo_slope = -3.340E-18,
(PID.TID 0000.0001) > /
(PID.TID 0000.0001) >#
(PID.TID 0000.0001) > &EXF_NML_04
(PID.TID 0000.0001) >#
(PID.TID 0000.0001) > atemp_lon0      = -178.5,
(PID.TID 0000.0001) > atemp_lon_inc   = 3.0,
(PID.TID 0000.0001) > atemp_lat0      = -88.5,
(PID.TID 0000.0001) > atemp_lat_inc   = 59*3.0,
(PID.TID 0000.0001) > atemp_nlon      = 120,
(PID.TID 0000.0001) > atemp_nlat      = 60,
(PID.TID 0000.0001) >#
(PID.TID 0000.0001) > aqh_lon0        = -178.5,
(PID.TID 0000.0001) > aqh_lon_inc     = 3.0,
(PID.TID 0000.0001) > aqh_lat0        = -88.5,
(PID.TID 0000.0001) > aqh_lat_inc     = 59*3.0,
(PID.TID 0000.0001) > aqh_nlon        = 120,
(PID.TID 0000.0001) > aqh_nlat        = 60,
(PID.TID 0000.0001) >#
(PID.TID 0000.0001) > precip_lon0     = -178.5,
(PID.TID 0000.0001) > precip_lon_inc  = 3.0,
(PID.TID 0000.0001) > precip_lat0     = -88.5,
(PID.TID 0000.0001) > precip_lat_inc  = 59*3.0,
(PID.TID 0000.0001) > precip_nlon     = 120,
(PID.TID 0000.0001) > precip_nlat     = 60,
(PID.TID 0000.0001) >#
(PID.TID 0000.0001) > uwind_lon0      = -178.5,
(PID.TID 0000.0001) > uwind_lon_inc   = 3.0,
(PID.TID 0000.0001) > uwind_lat0      = -88.5,
(PID.TID 0000.0001) > uwind_lat_inc   = 59*3.0,
(PID.TID 0000.0001) > uwind_nlon      = 120,
(PID.TID 0000.0001) > uwind_nlat      = 60,
(PID.TID 0000.0001) >#
(PID.TID 0000.0001) > vwind_lon0      = -178.5,
(PID.TID 0000.0001) > vwind_lon_inc   = 3.0,
(PID.TID 0000.0001) > vwind_lat0      = -88.5,
(PID.TID 0000.0001) > vwind_lat_inc   = 59*3.0,
(PID.TID 0000.0001) > vwind_nlon      = 120,
(PID.TID 0000.0001) > vwind_nlat      = 60,
(PID.TID 0000.0001) >#
(PID.TID 0000.0001) > swdown_lon0     = -178.5,
(PID.TID 0000.0001) > swdown_lon_inc  = 3.0,
(PID.TID 0000.0001) > swdown_lat0     = -88.5,
(PID.TID 0000.0001) > swdown_lat_inc  = 59*3.0,
(PID.TID 0000.0001) > swdown_nlon     = 120,
(PID.TID 0000.0001) > swdown_nlat     = 60,
(PID.TID 0000.0001) >#
(PID.TID 0000.0001) > lwdown_lon0     = -178.5,
(PID.TID 0000.0001) > lwdown_lon_inc  = 3.0,
(PID.TID 0000.0001) > lwdown_lat0     = -88.5,
(PID.TID 0000.0001) > lwdown_lat_inc  = 59*3.0,
(PID.TID 0000.0001) > lwdown_nlon     = 120,
(PID.TID 0000.0001) > lwdown_nlat     = 60,
(PID.TID 0000.0001) >#
(PID.TID 0000.0001) > runoff_lon0     = -178.5,
(PID.TID 0000.0001) > runoff_lon_inc  = 3.0,
(PID.TID 0000.0001) > runoff_lat0     = -88.5,
(PID.TID 0000.0001) > runoff_lat_inc  = 59*3.0,
(PID.TID 0000.0001) > runoff_nlon     = 120,
(PID.TID 0000.0001) > runoff_nlat     = 60,
(PID.TID 0000.0001) >#
(PID.TID 0000.0001) > apco2_lon0      = -178.5,
(PID.TID 0000.0001) > apco2_lon_inc   = 3.0,
(PID.TID 0000.0001) > apco2_lat0      = -88.5,
(PID.TID 0000.0001) > apco2_lat_inc   = 59*3.0,
(PID.TID 0000.0001) > apco2_nlon      = 120,
(PID.TID 0000.0001) > apco2_nlat      = 60,
(PID.TID 0000.0001) > /
(PID.TID 0000.0001) 
(PID.TID 0000.0001) EXF_READPARMS: reading EXF_NML_01
(PID.TID 0000.0001) EXF_READPARMS: reading EXF_NML_02
(PID.TID 0000.0001) EXF_READPARMS: reading EXF_NML_03
(PID.TID 0000.0001) EXF_READPARMS: reading EXF_NML_04
(PID.TID 0000.0001) EXF_READPARMS: finished reading data.exf
(PID.TID 0000.0001)  GGL90_READPARMS: opening data.ggl90
(PID.TID 0000.0001)  OPEN_COPY_DATA_FILE: opening file data.ggl90
(PID.TID 0000.0001) // =======================================================
(PID.TID 0000.0001) // Parameter file "data.ggl90"
(PID.TID 0000.0001) // =======================================================
(PID.TID 0000.0001) ># =====================================================================
(PID.TID 0000.0001) ># | Parameters for Gaspar et al. (1990)'s TKE vertical mixing scheme  |
(PID.TID 0000.0001) ># =====================================================================
(PID.TID 0000.0001) > &GGL90_PARM01
(PID.TID 0000.0001) > GGL90alpha=30.,
(PID.TID 0000.0001) > GGL90TKEmin  = 1.e-7,
(PID.TID 0000.0001) > GGL90TKEbottom = 1.e-6,
(PID.TID 0000.0001) > mxlMaxFlag =2,
(PID.TID 0000.0001) > mxlSurfFlag=.TRUE.,
(PID.TID 0000.0001) > /
(PID.TID 0000.0001) 
(PID.TID 0000.0001)  GGL90_READPARMS ; starts to read GGL90_PARM01
(PID.TID 0000.0001)  GGL90_READPARMS: read GGL90_PARM01 : OK
(PID.TID 0000.0001)  GGL90_READPARMS: finished reading data.ggl90
(PID.TID 0000.0001) // =======================================================
(PID.TID 0000.0001) // GGL90 configuration
(PID.TID 0000.0001) // =======================================================
(PID.TID 0000.0001) GGL90dumpFreq =   /* GGL90 state write out interval ( s ). */
(PID.TID 0000.0001)                 0.000000000000000E+00
(PID.TID 0000.0001)     ;
(PID.TID 0000.0001) GGL90taveFreq =   /* GGL90 averaging interval ( s ). */
(PID.TID 0000.0001)                 0.000000000000000E+00
(PID.TID 0000.0001)     ;
(PID.TID 0000.0001) GGL90mixingMAPS =   /* GGL90 IO flag. */
(PID.TID 0000.0001)                   F
(PID.TID 0000.0001)     ;
(PID.TID 0000.0001) GGL90writeState =   /* GGL90 IO flag. */
(PID.TID 0000.0001)                   F
(PID.TID 0000.0001)     ;
(PID.TID 0000.0001) GGL90ck =   /* GGL90 viscosity parameter. */
(PID.TID 0000.0001)                 1.000000000000000E-01
(PID.TID 0000.0001)     ;
(PID.TID 0000.0001) GGL90ceps =   /* GGL90 dissipation parameter. */
(PID.TID 0000.0001)                 7.000000000000000E-01
(PID.TID 0000.0001)     ;
(PID.TID 0000.0001) GGL90alpha =   /* GGL90 TKE diffusivity parameter. */
(PID.TID 0000.0001)                 3.000000000000000E+01
(PID.TID 0000.0001)     ;
(PID.TID 0000.0001) GGL90m2 =   /* GGL90 wind stress to vertical stress ratio. */
(PID.TID 0000.0001)                 3.750000000000000E+00
(PID.TID 0000.0001)     ;
(PID.TID 0000.0001) GGL90TKEmin =   /* GGL90 minimum kinetic energy ( m^2/s^2 ). */
(PID.TID 0000.0001)                 1.000000000000000E-07
(PID.TID 0000.0001)     ;
(PID.TID 0000.0001) GGL90TKEsurfMin =   /* GGL90 minimum surface kinetic energy ( m^2/s^2 ). */
(PID.TID 0000.0001)                 1.000000000000000E-04
(PID.TID 0000.0001)     ;
(PID.TID 0000.0001) GGL90TKEbottom =   /* GGL90 bottom kinetic energy ( m^2/s^2 ). */
(PID.TID 0000.0001)                 1.000000000000000E-06
(PID.TID 0000.0001)     ;
(PID.TID 0000.0001) GGL90viscMax =   /* GGL90 upper limit for viscosity ( m^2/s ). */
(PID.TID 0000.0001)                 1.000000000000000E+02
(PID.TID 0000.0001)     ;
(PID.TID 0000.0001) GGL90diffMax =   /* GGL90 upper limit for diffusivity ( m^2/s ). */
(PID.TID 0000.0001)                 1.000000000000000E+02
(PID.TID 0000.0001)     ;
(PID.TID 0000.0001) GGL90diffTKEh =   /* GGL90 horizontal diffusivity for TKE ( m^2/s ). */
(PID.TID 0000.0001)                 0.000000000000000E+00
(PID.TID 0000.0001)     ;
(PID.TID 0000.0001) GGL90mixingLengthMin =   /* GGL90 minimum mixing length ( m ). */
(PID.TID 0000.0001)                 1.000000000000000E-08
(PID.TID 0000.0001)     ;
(PID.TID 0000.0001) mxlMaxFlag =   /* Flag for limiting mixing-length method */
(PID.TID 0000.0001)                       2
(PID.TID 0000.0001)     ;
(PID.TID 0000.0001) mxlSurfFlag =   /* GGL90 flag for near surface mixing. */
(PID.TID 0000.0001)                   T
(PID.TID 0000.0001)     ;
(PID.TID 0000.0001) calcMeanVertShear = /* calc Mean of Vert.Shear (vs shear of Mean flow) */
(PID.TID 0000.0001)                   F
(PID.TID 0000.0001)     ;
(PID.TID 0000.0001) GGL90: GGL90TKEFile =
(PID.TID 0000.0001) GGL90writeState =   /* GGL90 Boundary condition flag. */
(PID.TID 0000.0001)                   T
(PID.TID 0000.0001)     ;
(PID.TID 0000.0001) // =======================================================
(PID.TID 0000.0001) // End of GGL90 config. summary
(PID.TID 0000.0001) // =======================================================
(PID.TID 0000.0001) 
(PID.TID 0000.0001)  GM_READPARMS: opening data.gmredi
(PID.TID 0000.0001)  OPEN_COPY_DATA_FILE: opening file data.gmredi
(PID.TID 0000.0001) // =======================================================
(PID.TID 0000.0001) // Parameter file "data.gmredi"
(PID.TID 0000.0001) // =======================================================
(PID.TID 0000.0001) ># from MOM
(PID.TID 0000.0001) ># GM_background_K: 	isopycnal diffusion coefficien
(PID.TID 0000.0001) ># GM_maxSlope:		max slope of isopycnals
(PID.TID 0000.0001) ># GM_Scrit:		transition for scaling diffusion coefficient
(PID.TID 0000.0001) ># GM_Sd:		half width scaling for diffusion coefficient
(PID.TID 0000.0001) ># real background diff:	horizontal diffusion
(PID.TID 0000.0001) >
(PID.TID 0000.0001) ># ifdef GM_VISBECK_VARIABLE_K, include following in GM_PARM01
(PID.TID 0000.0001) ># GM_Visbeck_alpha   = 0.,
(PID.TID 0000.0001) ># GM_Visbeck_length  = 2.e+5,
(PID.TID 0000.0001) ># GM_Visbeck_depth   = 1.e+3,
(PID.TID 0000.0001) ># GM_Visbeck_maxval_K= 2.5e+3,
(PID.TID 0000.0001) >
(PID.TID 0000.0001) > &GM_PARM01
(PID.TID 0000.0001) >  GM_background_K    = 1.e+3,
(PID.TID 0000.0001) >  GM_taper_scheme    = 'gkw91',
(PID.TID 0000.0001) >  GM_maxSlope        = 1.e-2,
(PID.TID 0000.0001) >  GM_Kmin_horiz      = 100.,
(PID.TID 0000.0001) >  GM_Scrit           = 4.e-3,
(PID.TID 0000.0001) >  GM_Sd              = 1.e-3,
(PID.TID 0000.0001) > /
(PID.TID 0000.0001) >
(PID.TID 0000.0001) >
(PID.TID 0000.0001) 
(PID.TID 0000.0001)  GM_READPARMS: finished reading data.gmredi
(PID.TID 0000.0001)  PTRACERS_READPARMS: opening data.ptracers
(PID.TID 0000.0001)  OPEN_COPY_DATA_FILE: opening file data.ptracers
(PID.TID 0000.0001) // =======================================================
(PID.TID 0000.0001) // Parameter file "data.ptracers"
(PID.TID 0000.0001) // =======================================================
(PID.TID 0000.0001) > &PTRACERS_PARM01
(PID.TID 0000.0001) > PTRACERS_numInUse=5,
(PID.TID 0000.0001) > PTRACERS_Iter0= 0,
(PID.TID 0000.0001) ># tracer 1 - dic
(PID.TID 0000.0001) > PTRACERS_names(1)='DIC',
(PID.TID 0000.0001) > PTRACERS_long_names(1)='Dissolved Inorganic Carbon (DIC) [mol C/m^3]',
(PID.TID 0000.0001) > PTRACERS_units(1)='mol/m^3',
(PID.TID 0000.0001) > PTRACERS_advScheme(1)=77,
(PID.TID 0000.0001) > PTRACERS_diffKh(1)=0.E3,
(PID.TID 0000.0001) > PTRACERS_diffKr(1)=3.E-5,
(PID.TID 0000.0001) > PTRACERS_useGMRedi(1)=.TRUE.,
(PID.TID 0000.0001) > PTRACERS_initialFile(1)='DIC.0005184000',
(PID.TID 0000.0001) >#- use F95 syntax (to be converted with -DNML_EXTENDED_F77 if needed)
(PID.TID 0000.0001) > PTRACERS_ref(1:15,1) = 2.0282, 2.0609, 2.1206, 2.1581,
(PID.TID 0000.0001) >                     2.1904, 2.2188, 2.2474, 2.2699,
(PID.TID 0000.0001) >                     2.2792, 2.2814, 2.2815, 2.2806,
(PID.TID 0000.0001) >                     2.2800, 2.2760, 2.2758,
(PID.TID 0000.0001) > PTRACERS_EvPrRn(1)= 0.,
(PID.TID 0000.0001) ># tracer 2 - alk
(PID.TID 0000.0001) > PTRACERS_names(2)='Alk',
(PID.TID 0000.0001) > PTRACERS_long_names(2)='Alkalinity (Alk) [mol eq/m^3]',
(PID.TID 0000.0001) > PTRACERS_units(2)='mol/m^3',
(PID.TID 0000.0001) > PTRACERS_advScheme(2)=77,
(PID.TID 0000.0001) > PTRACERS_diffKh(2)=0.E3,
(PID.TID 0000.0001) > PTRACERS_diffKr(2)=3.E-5,
(PID.TID 0000.0001) > PTRACERS_useGMRedi(2)=.TRUE.,
(PID.TID 0000.0001) > PTRACERS_initialFile(2)='Alk.0005184000',
(PID.TID 0000.0001) >#- use F95 syntax (to be converted with -DNML_EXTENDED_F77 if needed)
(PID.TID 0000.0001) > PTRACERS_ref(1:15,2) = 2.3086, 2.3149, 2.3164, 2.3112,
(PID.TID 0000.0001) >                     2.3098, 2.3160, 2.3313, 2.3517,
(PID.TID 0000.0001) >                     2.3667, 2.3761, 2.3832, 2.3862,
(PID.TID 0000.0001) >                     2.3881, 2.3863, 2.3867,
(PID.TID 0000.0001) > PTRACERS_EvPrRn(2)= 0.,
(PID.TID 0000.0001) ># tracer 3 - po4
(PID.TID 0000.0001) > PTRACERS_names(3)='PO4',
(PID.TID 0000.0001) > PTRACERS_long_names(3)='Phosphate (PO4) [mol P/m^3]',
(PID.TID 0000.0001) > PTRACERS_units(3)='mol/m^3',
(PID.TID 0000.0001) > PTRACERS_advScheme(3)=77,
(PID.TID 0000.0001) > PTRACERS_diffKh(3)=0.E3,
(PID.TID 0000.0001) > PTRACERS_diffKr(3)=3.E-5,
(PID.TID 0000.0001) > PTRACERS_useGMRedi(3)=.TRUE.,
(PID.TID 0000.0001) > PTRACERS_initialFile(3)='PO4.0005184000',
(PID.TID 0000.0001) >#- use F95 syntax (to be converted with -DNML_EXTENDED_F77 if needed)
(PID.TID 0000.0001) > PTRACERS_ref(1:15,3) = 0.5438E-3, 0.7821E-3, 1.1335E-3, 1.4913E-3,
(PID.TID 0000.0001) >                     1.8606E-3, 2.1986E-3, 2.3966E-3, 2.4187E-3,
(PID.TID 0000.0001) >                     2.4046E-3, 2.3291E-3, 2.2922E-3, 2.2886E-3,
(PID.TID 0000.0001) >                     2.2608E-3, 2.2356E-3, 2.2296E-3,
(PID.TID 0000.0001) >#PTRACERS_EvPrRn(3)= 0.,
(PID.TID 0000.0001) ># tracer 4 - dop
(PID.TID 0000.0001) > PTRACERS_names(4)='DOP',
(PID.TID 0000.0001) > PTRACERS_long_names(4)='Dissolved Organic Phosphorus (DOP) [mol P/m^3]',
(PID.TID 0000.0001) > PTRACERS_units(4)='mol/m^3',
(PID.TID 0000.0001) > PTRACERS_advScheme(4)=77,
(PID.TID 0000.0001) > PTRACERS_diffKh(4)=0.E3,
(PID.TID 0000.0001) > PTRACERS_diffKr(4)=3.E-5,
(PID.TID 0000.0001) > PTRACERS_useGMRedi(4)=.TRUE.,
(PID.TID 0000.0001) > PTRACERS_initialFile(4)='DOP.0005184000',
(PID.TID 0000.0001) >#- use F95 syntax (to be converted with -DNML_EXTENDED_F77 if needed)
(PID.TID 0000.0001) > PTRACERS_ref(1:15,4) = 15*0.,
(PID.TID 0000.0001) >#PTRACERS_EvPrRn(4)= 0.,
(PID.TID 0000.0001) ># tracer 5 - o2
(PID.TID 0000.0001) > PTRACERS_names(5)='O2',
(PID.TID 0000.0001) > PTRACERS_long_names(5)='Dissolved Oxygen (O2) [mol O/m^3]',
(PID.TID 0000.0001) > PTRACERS_units(5)='mol/m^3',
(PID.TID 0000.0001) > PTRACERS_advScheme(5)=77,
(PID.TID 0000.0001) > PTRACERS_diffKh(5)=0.E3,
(PID.TID 0000.0001) > PTRACERS_diffKr(5)=3.E-5,
(PID.TID 0000.0001) > PTRACERS_useGMRedi(5)=.TRUE.,
(PID.TID 0000.0001) > PTRACERS_initialFile(5)='O2.0005184000',
(PID.TID 0000.0001) >#- use F95 syntax (to be converted with -DNML_EXTENDED_F77 if needed)
(PID.TID 0000.0001) > PTRACERS_ref(1:15,5) = 0.2457, 0.2336, 0.1975, 0.1729,
(PID.TID 0000.0001) >                     0.1591, 0.1503, 0.1424, 0.1445,
(PID.TID 0000.0001) >                     0.1549, 0.1661, 0.1774, 0.1863,
(PID.TID 0000.0001) >                     0.1925, 0.2021, 0.2051,
(PID.TID 0000.0001) >#PTRACERS_EvPrRn(5)= 0.,
(PID.TID 0000.0001) > /
(PID.TID 0000.0001) 
(PID.TID 0000.0001)  PTRACERS_READPARMS: finished reading data.ptracers
(PID.TID 0000.0001)  GCHEM_READPARMS: opening data.gchem
(PID.TID 0000.0001)  OPEN_COPY_DATA_FILE: opening file data.gchem
(PID.TID 0000.0001) // =======================================================
(PID.TID 0000.0001) // Parameter file "data.gchem"
(PID.TID 0000.0001) // =======================================================
(PID.TID 0000.0001) > &GCHEM_PARM01
(PID.TID 0000.0001) >  useDIC=.TRUE.,
(PID.TID 0000.0001) >  nsubtime=1,
(PID.TID 0000.0001) > /
(PID.TID 0000.0001) 
(PID.TID 0000.0001)  GCHEM_READPARMS: finished reading data.gchem
(PID.TID 0000.0001)  DIC_READPARMS: opening data.dic
(PID.TID 0000.0001)  OPEN_COPY_DATA_FILE: opening file data.dic
(PID.TID 0000.0001) // =======================================================
(PID.TID 0000.0001) // Parameter file "data.dic"
(PID.TID 0000.0001) // =======================================================
(PID.TID 0000.0001) ># DIC parameters
(PID.TID 0000.0001) > &ABIOTIC_PARMS
(PID.TID 0000.0001) > /
(PID.TID 0000.0001) >
(PID.TID 0000.0001) > &BIOTIC_PARMS
(PID.TID 0000.0001) >  alphaUniform = 0.97e-10,
(PID.TID 0000.0001) >  rainRatioUniform = 5.e-2,
(PID.TID 0000.0001) >  KRemin = 0.95,
(PID.TID 0000.0001) > /
(PID.TID 0000.0001) >
(PID.TID 0000.0001) > &DIC_FORCING
(PID.TID 0000.0001) >  DIC_iceFile='fice.bin',
(PID.TID 0000.0001) >  DIC_windFile='tren_speed.bin',
(PID.TID 0000.0001) >  DIC_silicaFile='sillev1.bin',
(PID.TID 0000.0001) > /
(PID.TID 0000.0001) 
(PID.TID 0000.0001)  DIC_READPARMS: finished reading data.dic
(PID.TID 0000.0001) 
(PID.TID 0000.0001) // ===================================
(PID.TID 0000.0001) // DIC package parameters :
(PID.TID 0000.0001) // ===================================
(PID.TID 0000.0001) permil = /* Ref. density to convert mol/m3 to mol/kg */
(PID.TID 0000.0001)                 9.760858955588092E-04
(PID.TID 0000.0001)     ;
(PID.TID 0000.0001) Pa2Atm = /* Atmosph. pressure conversion coeff (to Atm) */
(PID.TID 0000.0001)                 1.013250000000000E+05
(PID.TID 0000.0001)     ;
(PID.TID 0000.0001) DOPfraction = /* Fraction of new production going to DOP */
(PID.TID 0000.0001)                 6.700000000000000E-01
(PID.TID 0000.0001)     ;
(PID.TID 0000.0001) KDOPRemin = /* DOP remineralization rate (1/s) */
(PID.TID 0000.0001)                 6.430041152263375E-08
(PID.TID 0000.0001)     ;
(PID.TID 0000.0001) KRemin = /* Remin power law coeff. */
(PID.TID 0000.0001)                 9.500000000000000E-01
(PID.TID 0000.0001)     ;
(PID.TID 0000.0001) zcrit = /* Minimum depth for biological activity (m) */
(PID.TID 0000.0001)                 5.000000000000000E+02
(PID.TID 0000.0001)     ;
(PID.TID 0000.0001) O2crit = /* Critical oxygen level (mol/m3) */
(PID.TID 0000.0001)                 4.000000000000000E-03
(PID.TID 0000.0001)     ;
(PID.TID 0000.0001) R_OP = /* Stochiometric ratio R_OP */
(PID.TID 0000.0001)                -1.700000000000000E+02
(PID.TID 0000.0001)     ;
(PID.TID 0000.0001) R_CP = /* Stochiometric ratio R_CP */
(PID.TID 0000.0001)                 1.170000000000000E+02
(PID.TID 0000.0001)     ;
(PID.TID 0000.0001) R_NP = /* Stochiometric ratio R_NP */
(PID.TID 0000.0001)                 1.600000000000000E+01
(PID.TID 0000.0001)     ;
(PID.TID 0000.0001) R_FeP = /* Stochiometric ratio R_FeP */
(PID.TID 0000.0001)                 4.680000000000000E-04
(PID.TID 0000.0001)     ;
(PID.TID 0000.0001) zca = /* Scale depth for CaCO3 remineralization (m) */
(PID.TID 0000.0001)                 3.500000000000000E+03
(PID.TID 0000.0001)     ;
(PID.TID 0000.0001) parfrac = /* Fraction of Qsw that is PAR */
(PID.TID 0000.0001)                 4.000000000000000E-01
(PID.TID 0000.0001)     ;
(PID.TID 0000.0001) k0 = /* Light attentuation coefficient, water (1/m) */
(PID.TID 0000.0001)                 2.000000000000000E-02
(PID.TID 0000.0001)     ;
(PID.TID 0000.0001) kchl = /* Light attentuation coefficient, chlorophyll (m2/mg) */
(PID.TID 0000.0001)                 2.000000000000000E-02
(PID.TID 0000.0001)     ;
(PID.TID 0000.0001) lit0 = /* Half saturation light constant (W/m2) */
(PID.TID 0000.0001)                 3.000000000000000E+01
(PID.TID 0000.0001)     ;
(PID.TID 0000.0001) KPO4 = /* Half saturation phosphate constant (mol/m3) */
(PID.TID 0000.0001)                 5.000000000000000E-04
(PID.TID 0000.0001)     ;
(PID.TID 0000.0001) KFE = /* Half saturation fe constant (mol/m3) */
(PID.TID 0000.0001)                 1.200000000000000E-07
(PID.TID 0000.0001)     ;
(PID.TID 0000.0001) alpfe = /* Solubility of aeolian fe */
(PID.TID 0000.0001)                 1.000000000000000E-02
(PID.TID 0000.0001)     ;
(PID.TID 0000.0001) fesedflux_pcm = /* Sediment Fe flux = fesedflux_pcm*pflux+FeIntSec */
(PID.TID 0000.0001)                 7.208000000000001E-02
(PID.TID 0000.0001)     ;
(PID.TID 0000.0001) FeIntSec = /* Sediment Fe flux = fesedflux_pcm * pflux + FeIntSec */
(PID.TID 0000.0001)                 5.787037037037037E-12
(PID.TID 0000.0001)     ;
(PID.TID 0000.0001) freefemax = /* Max solubility of free iron (mol/m3) */
(PID.TID 0000.0001)                 3.000000000000000E-07
(PID.TID 0000.0001)     ;
(PID.TID 0000.0001) KScav = /* Iron scavenging rate */
(PID.TID 0000.0001)                 6.108539094650206E-09
(PID.TID 0000.0001)     ;
(PID.TID 0000.0001) ligand_stab = /* Ligand-free iron stability constant (m3/mol) */
(PID.TID 0000.0001)                 1.000000000000000E+08
(PID.TID 0000.0001)     ;
(PID.TID 0000.0001) ligand_tot = /* Total free ligand  (mol/m3) */
(PID.TID 0000.0001)                 1.000000000000000E-06
(PID.TID 0000.0001)     ;
(PID.TID 0000.0001) alphaUniform = /* Timescale for biological activity */
(PID.TID 0000.0001)                 9.700000000000000E-11
(PID.TID 0000.0001)     ;
(PID.TID 0000.0001) rainRatioUniform= /* Inorganic/organic carbon rain ratio */
(PID.TID 0000.0001)                 5.000000000000000E-02
(PID.TID 0000.0001)     ;
(PID.TID 0000.0001) QSW_underice  =  /* Flag for Qsw under Sea-Ice (i.e. SI fract included) */
(PID.TID 0000.0001)                   F
(PID.TID 0000.0001)     ;
(PID.TID 0000.0001) DIC_windFile =  /* File name of wind speeds */
(PID.TID 0000.0001)               'tren_speed.bin'
(PID.TID 0000.0001)     ;
(PID.TID 0000.0001) DIC_atmospFile=  /* File name of atmospheric pressure*/
(PID.TID 0000.0001)               ''
(PID.TID 0000.0001)     ;
(PID.TID 0000.0001) DIC_iceFile =  /* File name of seaice fraction */
(PID.TID 0000.0001)               'fice.bin'
(PID.TID 0000.0001)     ;
(PID.TID 0000.0001) DIC_ironFile =  /* File name of aeolian iron flux */
(PID.TID 0000.0001)               ''
(PID.TID 0000.0001)     ;
(PID.TID 0000.0001) DIC_silicaFile=  /* File name of surface silica */
(PID.TID 0000.0001)               'sillev1.bin'
(PID.TID 0000.0001)     ;
(PID.TID 0000.0001) DIC_parFile=  /* File name of photosynthetically available radiation */
(PID.TID 0000.0001)               ''
(PID.TID 0000.0001)     ;
(PID.TID 0000.0001) DIC_chlaFile=  /* File name of chlorophyll climatology */
(PID.TID 0000.0001)               ''
(PID.TID 0000.0001)     ;
(PID.TID 0000.0001) DIC_forcingPeriod = /* Periodic forcing parameter specific for DIC (s) */
(PID.TID 0000.0001)                 2.592000000000000E+06
(PID.TID 0000.0001)     ;
(PID.TID 0000.0001) DIC_forcingCycle = /* Periodic forcing parameter specific for DIC (s) */
(PID.TID 0000.0001)                 3.110400000000000E+07
(PID.TID 0000.0001)     ;
(PID.TID 0000.0001) dic_int1 =  /*  */
(PID.TID 0000.0001)                       0
(PID.TID 0000.0001)     ;
(PID.TID 0000.0001) dic_int2 =  /*  */
(PID.TID 0000.0001)                       0
(PID.TID 0000.0001)     ;
(PID.TID 0000.0001) dic_int3 =  /*  */
(PID.TID 0000.0001)                       0
(PID.TID 0000.0001)     ;
(PID.TID 0000.0001) dic_int4 =  /*  */
(PID.TID 0000.0001)                       0
(PID.TID 0000.0001)     ;
(PID.TID 0000.0001) dic_pCO2 = /* Atmospheric pCO2 to be read in data.dic */
(PID.TID 0000.0001)                 2.780000000000000E-04
(PID.TID 0000.0001)     ;
(PID.TID 0000.0001) 
(PID.TID 0000.0001)  SEAICE_READPARMS: opening data.seaice
(PID.TID 0000.0001)  OPEN_COPY_DATA_FILE: opening file data.seaice
(PID.TID 0000.0001) // =======================================================
(PID.TID 0000.0001) // Parameter file "data.seaice"
(PID.TID 0000.0001) // =======================================================
(PID.TID 0000.0001) ># SEAICE parameters
(PID.TID 0000.0001) > &SEAICE_PARM01
(PID.TID 0000.0001) >      SEAICEuseTILT=.FALSE.,
(PID.TID 0000.0001) >      SEAICEpresH0=2.,
(PID.TID 0000.0001) >      SEAICEpresPow0=1,
(PID.TID 0000.0001) >      SEAICEpresPow1=3,
(PID.TID 0000.0001) >      SEAICE_multDim=1,
(PID.TID 0000.0001) >      SEAICErestoreUnderIce=.TRUE.,
(PID.TID 0000.0001) >      SEAICE_area_max=0.95,
(PID.TID 0000.0001) >#for backward compatibility (before 2011 june 19, those were the defaults)
(PID.TID 0000.0001) >#     SEAICE_area_floor=0.15,
(PID.TID 0000.0001) >#     SEAICE_area_reg=0.15,
(PID.TID 0000.0001) >      SEAICE_salt0=4.,
(PID.TID 0000.0001) ># for long time step:
(PID.TID 0000.0001) >#      SEAICE_deltaTevp   = 720.,
(PID.TID 0000.0001) ># for regular time step:
(PID.TID 0000.0001) >      SEAICE_deltaTevp   = 60.,
(PID.TID 0000.0001) ># for lsr:
(PID.TID 0000.0001) >#      LSR_ERROR          = 2.e-4,
(PID.TID 0000.0001) >      SEAICEuseDYNAMICS  = .TRUE.,
(PID.TID 0000.0001) ># BAD OPTION -- DO NOT USE -- SEAICE_maskRHS     = .TRUE.,
(PID.TID 0000.0001) >      MIN_ATEMP          = -40.,
(PID.TID 0000.0001) >      MIN_TICE           = -40.,
(PID.TID 0000.0001) >      SEAICEadvScheme    = 30,
(PID.TID 0000.0001) >      SEAICEuseFluxForm = .TRUE.,
(PID.TID 0000.0001) >      SEAICEadvSnow      = .TRUE.,
(PID.TID 0000.0001) >#      SEAICEadvSalt      = .TRUE.,
(PID.TID 0000.0001) >      SEAICEdiffKhHeff   = 400.,
(PID.TID 0000.0001) >      SEAICEdiffKhArea   = 400.,
(PID.TID 0000.0001) >      SEAICEdiffKhSnow   = 400.,
(PID.TID 0000.0001) >#      SEAICEdiffKhSalt   = 400.,
(PID.TID 0000.0001) >      SEAICEuseFlooding  = .TRUE.,
(PID.TID 0000.0001) >      SEAICE_mcPheePiston= 3.858024691358025E-05,
(PID.TID 0000.0001) >      SEAICE_frazilFrac  = 1.,
(PID.TID 0000.0001) >      SEAICE_mcPheeTaper = 0.,
(PID.TID 0000.0001) >      SEAICE_areaLossFormula=2,
(PID.TID 0000.0001) >      SEAICEheatConsFix  = .TRUE.,
(PID.TID 0000.0001) >      SEAICE_tempFrz0    = -1.96,
(PID.TID 0000.0001) >      SEAICE_dTempFrz_dS = 0.,
(PID.TID 0000.0001) >      SEAICEuseMetricTerms = .TRUE.,
(PID.TID 0000.0001) >      SEAICE_no_slip     = .FALSE.,
(PID.TID 0000.0001) >      SEAICE_clipVelocities = .TRUE.,
(PID.TID 0000.0001) >#take 33% out of (1-albedo)
(PID.TID 0000.0001) >      SEAICE_dryIceAlb   = 0.84,
(PID.TID 0000.0001) >      SEAICE_wetIceAlb   = 0.78,
(PID.TID 0000.0001) >      SEAICE_drySnowAlb  = 0.90,
(PID.TID 0000.0001) >      SEAICE_wetSnowAlb  = 0.8 ,
(PID.TID 0000.0001) >#default albedos
(PID.TID 0000.0001) >      SEAICE_dryIceAlb_south   = 0.75
(PID.TID 0000.0001) >      SEAICE_wetIceAlb_south   = 0.66
(PID.TID 0000.0001) >      SEAICE_drySnowAlb_south  = 0.84
(PID.TID 0000.0001) >      SEAICE_wetSnowAlb_south  = 0.7
(PID.TID 0000.0001) >#initial conditions
(PID.TID 0000.0001) >      AreaFile = 'Area.0005184000',
(PID.TID 0000.0001) >      HeffFile = 'Heff.0005184000',
(PID.TID 0000.0001) > /
(PID.TID 0000.0001) >#
(PID.TID 0000.0001) > &SEAICE_PARM02
(PID.TID 0000.0001) > /
(PID.TID 0000.0001) >
(PID.TID 0000.0001) 
(PID.TID 0000.0001)  SEAICE_READPARMS: finished reading data.seaice
(PID.TID 0000.0001) SALT_PLUME_READPARMS: opening data.salt_plume
(PID.TID 0000.0001)  OPEN_COPY_DATA_FILE: opening file data.salt_plume
(PID.TID 0000.0001) // =======================================================
(PID.TID 0000.0001) // Parameter file "data.salt_plume"
(PID.TID 0000.0001) // =======================================================
(PID.TID 0000.0001) > &SALT_PLUME_PARM01
(PID.TID 0000.0001) > SPsalFRAC= 0.5D0,
(PID.TID 0000.0001) > /
(PID.TID 0000.0001) 
(PID.TID 0000.0001) SALT_PLUME_READPARMS: finished reading data.salt_plume
(PID.TID 0000.0001)  DIAGNOSTICS_READPARMS: opening data.diagnostics
(PID.TID 0000.0001)  OPEN_COPY_DATA_FILE: opening file data.diagnostics
(PID.TID 0000.0001) // =======================================================
(PID.TID 0000.0001) // Parameter file "data.diagnostics"
(PID.TID 0000.0001) // =======================================================
(PID.TID 0000.0001) ># Diagnostic Package Choices
(PID.TID 0000.0001) >#--------------------
(PID.TID 0000.0001) >#  dumpAtLast (logical): always write output at the end of simulation (default=F)
(PID.TID 0000.0001) >#  diag_mnc   (logical): write to NetCDF files (default=useMNC)
(PID.TID 0000.0001) >#--for each output-stream:
(PID.TID 0000.0001) >#  fileName(n) : prefix of the output file name (max 80c long) for outp.stream n
(PID.TID 0000.0001) >#  frequency(n):< 0 : write snap-shot output every |frequency| seconds
(PID.TID 0000.0001) >#               > 0 : write time-average output every frequency seconds
(PID.TID 0000.0001) >#  timePhase(n)     : write at time = timePhase + multiple of |frequency|
(PID.TID 0000.0001) >#    averagingFreq  : frequency (in s) for periodic averaging interval
(PID.TID 0000.0001) >#    averagingPhase : phase     (in s) for periodic averaging interval
(PID.TID 0000.0001) >#    repeatCycle    : number of averaging intervals in 1 cycle
(PID.TID 0000.0001) >#  levels(:,n) : list of levels to write to file (Notes: declared as REAL)
(PID.TID 0000.0001) >#                when this entry is missing, select all common levels of this list
(PID.TID 0000.0001) >#  fields(:,n) : list of selected diagnostics fields (8.c) in outp.stream n
(PID.TID 0000.0001) >#                (see "available_diagnostics.log" file for the full list of diags)
(PID.TID 0000.0001) >#  missing_value(n) : missing value for real-type fields in output file "n"
(PID.TID 0000.0001) >#  fileFlags(n)     : specific code (8c string) for output file "n"
(PID.TID 0000.0001) >#--------------------
(PID.TID 0000.0001) > &DIAGNOSTICS_LIST
(PID.TID 0000.0001) >  fields(1:10,1) = 'ETAN    ','ETANSQ  ','DETADT2 ','PHIBOT  ','PHIBOTSQ',
(PID.TID 0000.0001) >                   'DICTFLX ','DICOFLX ','DICCFLX ','DICPCO2 ','DICPHAV ',
(PID.TID 0000.0001) >   levels(1,1) = 1.,
(PID.TID 0000.0001) >   fileName(1) = 'surfDiag',
(PID.TID 0000.0001) >  frequency(1) = 432000.,
(PID.TID 0000.0001) >  frequency(1) = 172800.,
(PID.TID 0000.0001) >  fields(1:18,2) = 'UVEL    ','VVEL    ','WVEL    ','PHIHYD  ',
(PID.TID 0000.0001) >                   'UVELMASS','VVELMASS',
(PID.TID 0000.0001) >                   'UVELSQ  ','VVELSQ  ','UV_VEL_C','THETASQ ',
(PID.TID 0000.0001) >                   'THETA   ','UTHMASS ','VTHMASS ','WVELTH  ',
(PID.TID 0000.0001) >                   'SALT    ','USLTMASS','VSLTMASS','WVELSLT ',
(PID.TID 0000.0001) >#  fileName(2) = 'dynDiag',
(PID.TID 0000.0001) >  frequency(2) = 0.,
(PID.TID 0000.0001) >  fields(1:5,3)  = 'DICBIOA ','DICCARB ',
(PID.TID 0000.0001) >                   'TRAC05  ','ADVxTr05','DFrITr05',
(PID.TID 0000.0001) >#  fileName(3) = 'dicDiag',
(PID.TID 0000.0001) >  frequency(3) = 172800.,
(PID.TID 0000.0001) >  fields(1:8,4)  = 'ADVx_TH ','ADVy_TH ','ADVr_TH ',
(PID.TID 0000.0001) >                   'DFxE_TH ','DFyE_TH ','DFrE_TH ',
(PID.TID 0000.0001) >                   'DFrI_TH ',
(PID.TID 0000.0001) >                   'ADVx_SLT',
(PID.TID 0000.0001) >#  fileName(4) = 'flxDiag',
(PID.TID 0000.0001) >  frequency(4) = 0.,
(PID.TID 0000.0001) > /
(PID.TID 0000.0001) >
(PID.TID 0000.0001) >#--------------------
(PID.TID 0000.0001) ># Parameter for Diagnostics of per level statistics:
(PID.TID 0000.0001) >#--------------------
(PID.TID 0000.0001) >#  diagSt_mnc (logical): write stat-diags to NetCDF files (default=diag_mnc)
(PID.TID 0000.0001) >#  diagSt_regMaskFile : file containing the region-mask to read-in
(PID.TID 0000.0001) >#  nSetRegMskFile   : number of region-mask sets within the region-mask file
(PID.TID 0000.0001) >#  set_regMask(i)   : region-mask set-index that identifies the region "i"
(PID.TID 0000.0001) >#  val_regMask(i)   : region "i" identifier value in the region mask
(PID.TID 0000.0001) >#--for each output-stream:
(PID.TID 0000.0001) >#  stat_fName(n) : prefix of the output file name (max 80c long) for outp.stream n
(PID.TID 0000.0001) >#  stat_freq(n):< 0 : write snap-shot output every |stat_freq| seconds
(PID.TID 0000.0001) >#               > 0 : write time-average output every stat_freq seconds
(PID.TID 0000.0001) >#  stat_phase(n)    : write at time = stat_phase + multiple of |stat_freq|
(PID.TID 0000.0001) >#  stat_region(:,n) : list of "regions" (default: 1 region only=global)
(PID.TID 0000.0001) >#  stat_fields(:,n) : list of selected diagnostics fields (8.c) in outp.stream n
(PID.TID 0000.0001) >#                (see "available_diagnostics.log" file for the full list of diags)
(PID.TID 0000.0001) >#--------------------
(PID.TID 0000.0001) > &DIAG_STATIS_PARMS
(PID.TID 0000.0001) >#- an example just to check the agreement with MONITOR output:
(PID.TID 0000.0001) >#stat_fields(1:5,1)  = 'ETAN    ','UVEL    ','VVEL    ','WVEL    ', 'THETA   ',
(PID.TID 0000.0001) ># stat_fName(1) = 'dynStDiag',
(PID.TID 0000.0001) >#  stat_freq(1) = -864000.,
(PID.TID 0000.0001) ># stat_phase(1) = 0.,
(PID.TID 0000.0001) > /
(PID.TID 0000.0001) >
(PID.TID 0000.0001) 
(PID.TID 0000.0001) S/R DIAGNOSTICS_READPARMS, read namelist "diagnostics_list": start
(PID.TID 0000.0001) S/R DIAGNOSTICS_READPARMS, read namelist "diagnostics_list": OK
(PID.TID 0000.0001) S/R DIAGNOSTICS_READPARMS, read namelist "DIAG_STATIS_PARMS": start
(PID.TID 0000.0001) S/R DIAGNOSTICS_READPARMS, read namelist "DIAG_STATIS_PARMS": OK
(PID.TID 0000.0001)  DIAGNOSTICS_READPARMS: global parameter summary:
(PID.TID 0000.0001)  dumpAtLast = /* always write time-ave diags at the end */
(PID.TID 0000.0001)                   F
(PID.TID 0000.0001)     ;
(PID.TID 0000.0001)  diag_mnc =   /* write NetCDF output files */
(PID.TID 0000.0001)                   F
(PID.TID 0000.0001)     ;
(PID.TID 0000.0001)  useMissingValue = /* put MissingValue where mask = 0 */
(PID.TID 0000.0001)                   F
(PID.TID 0000.0001)     ;
(PID.TID 0000.0001)  diagCG_maxIters = /* max number of iters in diag_cg2d */
(PID.TID 0000.0001)                    1000
(PID.TID 0000.0001)     ;
(PID.TID 0000.0001)  diagCG_resTarget = /* residual target for diag_cg2d */
(PID.TID 0000.0001)                 1.000000000000000E-13
(PID.TID 0000.0001)     ;
(PID.TID 0000.0001)  diagCG_pcOffDFac = /* preconditioner off-diagonal factor */
(PID.TID 0000.0001)                 9.611687812379854E-01
(PID.TID 0000.0001)     ;
(PID.TID 0000.0001) -----------------------------------------------------
(PID.TID 0000.0001)  DIAGNOSTICS_READPARMS: active diagnostics summary:
(PID.TID 0000.0001) -----------------------------------------------------
(PID.TID 0000.0001) Creating Output Stream: surfDiag
(PID.TID 0000.0001) Output Frequency:     172800.000000 ; Phase:           0.000000
(PID.TID 0000.0001)  Averaging Freq.:     172800.000000 , Phase:           0.000000 , Cycle:   1
(PID.TID 0000.0001)  missing value: -9.990000000000E+02
(PID.TID 0000.0001)  Levels:       1.
(PID.TID 0000.0001)  Fields:    ETAN     ETANSQ   DETADT2  PHIBOT   PHIBOTSQ DICTFLX  DICOFLX  DICCFLX  DICPCO2  DICPHAV
(PID.TID 0000.0001) -----------------------------------------------------
(PID.TID 0000.0001)  DIAGNOSTICS_READPARMS: statistics diags. summary:
(PID.TID 0000.0001) -----------------------------------------------------
(PID.TID 0000.0001) 
(PID.TID 0000.0001) SET_PARMS: done
(PID.TID 0000.0001) Enter INI_VERTICAL_GRID: setInterFDr=    T ; setCenterDr=    F
(PID.TID 0000.0001) %MON XC_max                       =   3.5859375000000E+02
(PID.TID 0000.0001) %MON XC_min                       =   1.4062500000000E+00
(PID.TID 0000.0001) %MON XC_mean                      =   1.8000000000000E+02
(PID.TID 0000.0001) %MON XC_sd                        =   1.0391987692599E+02
(PID.TID 0000.0001) %MON XG_max                       =   3.5718750000000E+02
(PID.TID 0000.0001) %MON XG_min                       =   0.0000000000000E+00
(PID.TID 0000.0001) %MON XG_mean                      =   1.7859375000000E+02
(PID.TID 0000.0001) %MON XG_sd                        =   1.0391987692599E+02
(PID.TID 0000.0001) %MON DXC_max                      =   3.1259246843155E+05
(PID.TID 0000.0001) %MON DXC_min                      =   7.6737143816223E+03
(PID.TID 0000.0001) %MON DXC_mean                     =   1.9908248704234E+05
(PID.TID 0000.0001) %MON DXC_sd                       =   9.6190602240067E+04
(PID.TID 0000.0001) %MON DXF_max                      =   3.1259246843155E+05
(PID.TID 0000.0001) %MON DXF_min                      =   7.6737143816223E+03
(PID.TID 0000.0001) %MON DXF_mean                     =   1.9908248704234E+05
(PID.TID 0000.0001) %MON DXF_sd                       =   9.6190602240067E+04
(PID.TID 0000.0001) %MON DXG_max                      =   3.1268664380261E+05
(PID.TID 0000.0001) %MON DXG_min                      =   0.0000000000000E+00
(PID.TID 0000.0001) %MON DXG_mean                     =   1.9902252711933E+05
(PID.TID 0000.0001) %MON DXG_sd                       =   9.6314600686012E+04
(PID.TID 0000.0001) %MON DXV_max                      =   3.1268664380261E+05
(PID.TID 0000.0001) %MON DXV_min                      =   0.0000000000000E+00
(PID.TID 0000.0001) %MON DXV_mean                     =   1.9902252711933E+05
(PID.TID 0000.0001) %MON DXV_sd                       =   9.6314600686012E+04
(PID.TID 0000.0001) %MON YC_max                       =   8.8593750000000E+01
(PID.TID 0000.0001) %MON YC_min                       =  -8.8593750000000E+01
(PID.TID 0000.0001) %MON YC_mean                      =   0.0000000000000E+00
(PID.TID 0000.0001) %MON YC_sd                        =   5.1955180880375E+01
(PID.TID 0000.0001) %MON YG_max                       =   8.7187500000000E+01
(PID.TID 0000.0001) %MON YG_min                       =  -9.0000000000000E+01
(PID.TID 0000.0001) %MON YG_mean                      =  -1.4062500000000E+00
(PID.TID 0000.0001) %MON YG_sd                        =   5.1955180880375E+01
(PID.TID 0000.0001) %MON DYC_max                      =   3.1268664380261E+05
(PID.TID 0000.0001) %MON DYC_min                      =   3.1268664380261E+05
(PID.TID 0000.0001) %MON DYC_mean                     =   3.1268664380260E+05
(PID.TID 0000.0001) %MON DYC_sd                       =   4.3655745685101E-09
(PID.TID 0000.0001) %MON DYF_max                      =   3.1268664380261E+05
(PID.TID 0000.0001) %MON DYF_min                      =   3.1268664380261E+05
(PID.TID 0000.0001) %MON DYF_mean                     =   3.1268664380260E+05
(PID.TID 0000.0001) %MON DYF_sd                       =   4.3655745685101E-09
(PID.TID 0000.0001) %MON DYG_max                      =   3.1268664380261E+05
(PID.TID 0000.0001) %MON DYG_min                      =   3.1268664380261E+05
(PID.TID 0000.0001) %MON DYG_mean                     =   3.1268664380260E+05
(PID.TID 0000.0001) %MON DYG_sd                       =   4.3655745685101E-09
(PID.TID 0000.0001) %MON DYU_max                      =   3.1268664380261E+05
(PID.TID 0000.0001) %MON DYU_min                      =   3.1268664380261E+05
(PID.TID 0000.0001) %MON DYU_mean                     =   3.1268664380260E+05
(PID.TID 0000.0001) %MON DYU_sd                       =   4.3655745685101E-09
(PID.TID 0000.0001) %MON RA_max                       =   9.7733676797555E+10
(PID.TID 0000.0001) %MON RA_min                       =   2.3992270990190E+09
(PID.TID 0000.0001) %MON RA_mean                      =   6.2244185031956E+10
(PID.TID 0000.0001) %MON RA_sd                        =   3.0074496923945E+10
(PID.TID 0000.0001) %MON RAW_max                      =   9.7733676797555E+10
(PID.TID 0000.0001) %MON RAW_min                      =   2.3992270990190E+09
(PID.TID 0000.0001) %MON RAW_mean                     =   6.2244185031956E+10
(PID.TID 0000.0001) %MON RAW_sd                       =   3.0074496923945E+10
(PID.TID 0000.0001) %MON RAS_max                      =   9.7763121221868E+10
(PID.TID 0000.0001) %MON RAS_min                      =   0.0000000000000E+00
(PID.TID 0000.0001) %MON RAS_mean                     =   6.2225438247155E+10
(PID.TID 0000.0001) %MON RAS_sd                       =   3.0113265689232E+10
(PID.TID 0000.0001) %MON RAZ_max                      =   9.7763121221868E+10
(PID.TID 0000.0001) %MON RAZ_min                      =   0.0000000000000E+00
(PID.TID 0000.0001) %MON RAZ_mean                     =   6.2225438247155E+10
(PID.TID 0000.0001) %MON RAZ_sd                       =   3.0113265689232E+10
(PID.TID 0000.0001) %MON AngleCS_max                  =   1.0000000000000E+00
(PID.TID 0000.0001) %MON AngleCS_min                  =   1.0000000000000E+00
(PID.TID 0000.0001) %MON AngleCS_mean                 =   1.0000000000000E+00
(PID.TID 0000.0001) %MON AngleCS_sd                   =   0.0000000000000E+00
(PID.TID 0000.0001) %MON AngleSN_max                  =   0.0000000000000E+00
(PID.TID 0000.0001) %MON AngleSN_min                  =   0.0000000000000E+00
(PID.TID 0000.0001) %MON AngleSN_mean                 =   0.0000000000000E+00
(PID.TID 0000.0001) %MON AngleSN_sd                   =   0.0000000000000E+00
(PID.TID 0000.0001)  MDS_WRITEVEC_LOC: open file: RhoRef.data
(PID.TID 0000.0001)  MDS_WR_REC_RL: iRec,Dim =         1         15
(PID.TID 0000.0001)  MDS_READ_FIELD: opening global file: bathy.bin
(PID.TID 0000.0001) // =======================================================
(PID.TID 0000.0001) // Field Bottom depths (ini_depths)
(PID.TID 0000.0001) // CMIN =         -5.200000000000000E+03
(PID.TID 0000.0001) // CMAX =         -5.000000000000000E+01
(PID.TID 0000.0001) // CINT =          1.907407407407407E+02
(PID.TID 0000.0001) // SYMBOLS (CMIN->CMAX): -abcdefghijklmnopqrstuvwxyz+
(PID.TID 0000.0001) //                  0.0: .
(PID.TID 0000.0001) // RANGE I (Lo:Hi:Step):(    -3:   132:     1)
(PID.TID 0000.0001) // RANGE J (Lo:Hi:Step):(    68:    -3:    -1)
(PID.TID 0000.0001) // RANGE K (Lo:Hi:Step):(   1:   1:   1)
(PID.TID 0000.0001) // =======================================================
(PID.TID 0000.0001) K =   1
(PID.TID 0000.0001) //                I=6       I=16      I=26      I=36      I=46      I=56      I=66      I=68      I=78      I=88      I=98      I=108     I=118     I=128
(PID.TID 0000.0001) // |--J--|321012345|789012345|789012345|789012345|789012345|789012345|789012345|781234567|901234567|901234567|901234567|901234567|901234567|901234567|9012
(PID.TID 0000.0001) //     68 ................................................................................................................................................
(PID.TID 0000.0001) //     67 ................................................................................................................................................
(PID.TID 0000.0001) //     66 ................................................................................................................................................
(PID.TID 0000.0001) //     65 ................................................................................................................................................
(PID.TID 0000.0001) //     64 ................................................................................................................................................
(PID.TID 0000.0001) //     63 ................................................................................................................................................
(PID.TID 0000.0001) //     62 ................................................................................................................................................
(PID.TID 0000.0001) //     61 +zsnovwy++...+zzzzzz++++...............................................................................................................++zsnovwy
(PID.TID 0000.0001) //     60 +zrmmnot.....+zzzzzzzzz+.........................................................................................y....................zz+zrmmnot
(PID.TID 0000.0001) //     59 omjjklnoqyz++zyzzzzzzzz.........................................................................................yxwvvyy..............zzromjjklno
(PID.TID 0000.0001) //     58 sponmlmoqwzyzzzzzzzz++.............................................................................................wrtxz............zytssponmlmo
(PID.TID 0000.0001) //     57 rqmmmkmmz............................................................................................................tvz............xwurrqmmmkmm
(PID.TID 0000.0001) //     56 uqjmmuyz..............................................................................................................yx........yyyyy..zuqjmmuyz
(PID.TID 0000.0001) //     55 xwrrux..............................................................++......++.......................................+yuu.....wonrwyzzzyxwrrux..
(PID.TID 0000.0001) //     54 wyz++............................................................ymnz+++.ymnz+++......................................wmkkr..qmmotsqooruwyz++...
(PID.TID 0000.0001) //     53 v...++.................................................zzzz...omsjjjjm++sjjjjm+++.....zjghl...........................zojjjlkkloronmpvxtv...++..
(PID.TID 0000.0001) //     52 ....++................................................+xxyy...ggijjljjmpijjljjmpz.++tdeffhjm............................zmjiijlqnljlqtpo....++..
(PID.TID 0000.0001) //     51 .......................................................xvvx..ddfdhjsqmpqdhjsqmpqdbcddddefghjlz..........................zylgghhikkjhigqy........
(PID.TID 0000.0001) //     50 z+.....................................................+uutw---aaaa-----aaa------aaaabddefghjnq..........................zvogdefglkgfddpz+......
(PID.TID 0000.0001) //     49 dg+....................................................roqja--------------------------abddefhmmx..........................+whddehlnjdddddg+.....
(PID.TID 0000.0001) //     48 oxy.....................................................va------a-------a--------------addefgjlx.....................++nj+wfddfgjnmkgeddoxy.....
(PID.TID 0000.0001) //     47 t......................................................a------a----------------------aaaddefgiks...................+qfbaaahebddgoqnhfa--t.......
(PID.TID 0000.0001) //     46 v.....................................................z------d--a-d-----a-d----------------abddg..................lfdda-----bdhksrqhdacev.......
(PID.TID 0000.0001) //     45 g.....................................................b-----fb---cdhfe---cdhfe-------------aadddk................oeaaddb-abcehlnmkgcabjdg.......
(PID.TID 0000.0001) //     44 .................................................+.vgs-----ci----aaa-----aaa--------------bddddefu..............xf--ddb---adhlkihjd-bfgi........
(PID.TID 0000.0001) //     43 ................................................+ywfdng-------------a-a-----a-a--------abddddddefhr............+vd--ab----afkjgccda-deju........
(PID.TID 0000.0001) //     42 ...............................................+zveddhna-------------dde-----ddedbba----addddddeffh............+vd-------acgifaa-aaadis.........
(PID.TID 0000.0001) //     41 .........................op.....................qdeeddn---a--a--------dd------ddheddea---abddddeefgizw.......t+++n-------adifd-----dem..........
(PID.TID 0000.0001) //     40 .........................ljn.................zom----ddil---aac---fkic-df-fkic-dfdddgja------ddddegghjl.......tmv.uq------adifa--bbadfs..........
(PID.TID 0000.0001) //     39 ........................zhijj.....ppq.......rjmxa---bdfiea----acaigefghfaigefghf---cda-------adefggijjl......jkrvt.vnu--adejfa-aadehjm..........
(PID.TID 0000.0001) //     38 .......................nhggghr...llmn+.....vngt.g--aadfib---------ea---a--ea---aa---------bbbaddefggjhkjiv.....wphiggrna-agifaa---cljn..........
(PID.TID 0000.0001) //     37 ....................wttlheefes..+jjkmu+....oggx.x---adig-----addd-------d----------------bbbdddddeefghjkiggh...ojizsjssjbadfhca----bdj..........
(PID.TID 0000.0001) //     36 ......................qghfdddpq.+hiipoz....rrt...--adiige----gdefd-----cfd-----caebb-dd--abbdddddeeghikjhghhjy.vt......mgddddhfbaa-adh..........
(PID.TID 0000.0001) //     35 ......................adgieddkos+gghksy....tt....--gdimmnheeddcdfd---a--fd---a--ackfbaabddddddddefffgghkjihhjqt.........+sfeddfhgfefhdd+........
(PID.TID 0000.0001) //     34 l+owgp+..............laddfiighojeefght........wjlldfdelfedhkigddddd--a--ddd--a---aehdddddddddddddeeggghjjjjlqolm..........zjfedgkhfegdddl+owgp+.
(PID.TID 0000.0001) //     33 caaddgn.............jcadddfkggoedddged.........zxxifefkeddhnmgddddd-----ddd-------afddeddddddddddefgghijjkmqomkv...........zfeefkkhhddcccaaddgn.
(PID.TID 0000.0001) //     32 fdaddfl............kdbadddeiigjddddfddd.........yy..zomsrqjqpjdefeda----feda-----aaadddddddddddddeeefghjjjjkqnr..............kjfeffdcfgifdaddfl.
(PID.TID 0000.0001) //     31 heddddes..........vgdddsggfhiidaaddfddcd........xxv.....t.srroljiea-----iea------faaaadddddddddddeeefijiihhhiii................nea--adgkheddddes
(PID.TID 0000.0001) //     30 hdde--di..........rgdfehqiggjtaaaddfaaa-fx...zxxxxw++....mj.spjhdaad---adaad---adge-aaaadefddddddeefikiggggfffe................zd---adhlhdde--di
(PID.TID 0000.0001) //     29 heda--aey.........rigfffhyjjjlaaadddaaaa-ailnmxxxx++++.+..qoqqklfdddfffdfdddfffdfhka-acbddifdefgggfikjheeggfeddl...............vb---aehlheda--ae
(PID.TID 0000.0001) //     36 ......................qghfdddpq.+hiipoz....rrt...--adiige----gdefd-----cfd-----caebb-dd--abbdddddeeghikjhghhjy.vt......mgddddhfbaa-adh..........
(PID.TID 0000.0001) //     35 ......................adgieddkos+gghksy....tt....--gdimmnheeddcdfd---a--fd---a--ackfbaabddddddddefffgghkjihhjqt.........+sfeddfhgfefhdd+........
(PID.TID 0000.0001) //     34 l+owgp+..............laddfiighojeefght........wjlldfdelfedhkigddddd--a--ddd--a---aehdddddddddddddeeggghjjjjlqolm..........zjfedgkhfegdddl+owgp+.
(PID.TID 0000.0001) //     33 caaddgn.............jcadddfkggoedddged.........zxxifefkeddhnmgddddd-----ddd-------afddeddddddddddefgghijjkmqomkv...........zfeefkkhhddcccaaddgn.
(PID.TID 0000.0001) //     32 fdaddfl............kdbadddeiigjddddfddd.........yy..zomsrqjqpjdefeda----feda-----aaadddddddddddddeeefghjjjjkqnr..............kjfeffdcfgifdaddfl.
(PID.TID 0000.0001) //     31 heddddes..........vgdddsggfhiidaaddfddcd........xxv.....t.srroljiea-----iea------faaaadddddddddddeeefijiihhhiii................nea--adgkheddddes
(PID.TID 0000.0001) //     30 hdde--di..........rgdfehqiggjtaaaddfaaa-fx...zxxxxw++....mj.spjhdaad---adaad---adge-aaaadefddddddeefikiggggfffe................zd---adhlhdde--di
(PID.TID 0000.0001) //     29 heda--aey.........rigfffhyjjjlaaadddaaaa-ailnmxxxx++++.+..qoqqklfdddfffdfdddfffdfhka-acbddifdefgggfikjheeggfeddl...............vb---aehlheda--ae
(PID.TID 0000.0001) //     28 hfd---afy.........+kj.ddfojkhfa-addg--d-c-ddd-jx++.....rjggpmigqkllopidckllopidc-dlaaadddeffffggghijkigefghgfddd..............+ec---ddjjhfd---af
(PID.TID 0000.0001) //     27 heda--ag..........zm..edfxikiddaaafla-a----dedr+........vugklgftkllpqqkckllpqqkc--dddefornkfffgghhjkjhgfhhgeddddi.............rdda--dfjkheda--ag
(PID.TID 0000.0001) //     26 heda---h..........r+..ddjiimieddaadl-a-----dsw+..........yqnlkkjnlnvsqibnlnvsqib--ddddiffkkjgfghhhjkjhgfeefedddgfd............+fdb--afilheda---h
(PID.TID 0000.0001) //     25 jdd--bkn.........mmz.ndfffimlfddddejda---abfw.............zpvsrsnlljrs--nlljrs---addddddedggggghhijkiggfffffeeggdde...........nfea--adfljdd--bkn
(PID.TID 0000.0001) //     24 fd---gngu.......zkjx.fddddegkiffdddjd---aajm..............zppsotngdhsp--ngdhsp----bdddddddefhihijjljjhghggggghjedff..........pheb---ddgkfd---gng
(PID.TID 0000.0001) //     23 fedackddm.......tfejsd---degikiffeefdccfba-m..............+gmtmomidiqi--midiqi-----dddddifeefgghijklmkkjiiihihgffff........zoledcaabdfhkfedackdd
(PID.TID 0000.0001) //     22 heddhaadjz.....uqbcnnfabdfddffjifffolnljda--+.............zdntmnmngiq---mngiq------ddddddeeeeefghijlmkjihhhihggfeev........ohgfqihdddfilheddhaad
(PID.TID 0000.0001) //     21 fefgebabgq.....jpabrofdfiddddfilihjleeonb-abn....++.......sdluotmqjll---mqjll------dddddddddeffghhikmjjihhhihggfef+.......shgfflgiddfhkkfefgebab
(PID.TID 0000.0001) //     20 gggdb--addw.zgegi-allghkdddddegllhhgfeddc--kl+vhcdnw......dccotrr.tnd--ar.tnd--aa--------ddddffffhhjmjiiiiihgggfff.......xfbbbdddffggjkjgggdb--a
(PID.TID 0000.0001) //     19 jjfda--addddgkefdadkknkfd-adeegnkihhhgfddddddda------v...kddadsvv..via-bv..via-bb--d------abddddeegjmjgfgijihggffp......zfa-aaaddddfgklljjfda--a
(PID.TID 0000.0001) //     18 hgddca-dddaagndddflnkjheb-adefglllllkjhfeeddddba-----df..gddbdfux..olifdx..olifdba-ddd------adddeehkmihfefijihgggy......h------abddfhkljhgddca-d
(PID.TID 0000.0001) //     17 ggffdddddaabca-dgnomnmjfcbddfgikkklklljhgggedddddddddddn+jddbddr..yxxxqk..yxxxqk--addd------adddfghkljigeeefgikii+...++p---aaa--adddgjkjggffdddd
(PID.TID 0000.0001) //     16 lifeddfedccb--aglnpqpnmgddfpunjjjjjjjklkjihgffeddddeefdjqgdcbde..tsojdaa.tsojdaa-aadddbaaaaadddefgjlljhgeeeeffhjk....++j---------addfgkllifeddfe
(PID.TID 0000.0001) //     15 lljhgghgdcddb-dfdefffffedeou.xnmjjgghijjjkkjjhgggghikjgggldddekzxxvvga--xxvvga--aaaabcddddddddeghiklkihfedddddefi....+zsqmb-afaaabddffhjlljhgghg
(PID.TID 0000.0001) //     14 jnonnkhikkjjhfc-bfmlhfeedddglxytmjdefhhhhhiihgfedghikljifeddfhjxyydba--ayydba--aaabcdddefhfddefhjmljhhfedddddddfgj..+zzsqpnnqjigifffdefhjnonnkhi
(PID.TID 0000.0001) //     13 ijnomnlgddfeeb---gjfeddddddhgmsrjgddeefgggggedddddefgjlmghgfjgkusaa---aasaa---aabcddghiiijmljihimljhhgeddcdaadddfjlllkjihggjkmwvjddfddefijnomnlg
(PID.TID 0000.0001) //     12 fhifec----bb------------abddlnnrsiddddeedddddddddddddfhjkkiijfd----aaddc---aaddccdegijlnkihjihggggdddddccdddddddddfihggggggkkjkkjjodddeffhifec--
(PID.TID 0000.0001) //     11 a----------a-----------abbdddgmmqsjeeededddeddeddddddeeghkllnkjecacddeffcacddeffgggikmlkihgeddecbaddaaaaaaaaabbbddeghhgilolvxomnllkefgdaa-------
(PID.TID 0000.0001) //     10 ----dcaa-aaaaaaaabbdebcbddfghhjjmmjjjkprohiijkhhgggghhhggjjlommnnmijijklnmijijklnmmllkjggeddddaaaaaaaddaaabdddddefgill..zqjkigddddddbaa-----dcaa
(PID.TID 0000.0001) //      9 adddkhefjfdddddhfdekpy..xpnnpponxxyzz........zyz+y...zzxxwsmmmmmkjjjmmmkkjjjmmmkkhgggfdeeeddddddddddddddddddddeeghpy...yxnhgedddddddbaaaadddkhef
(PID.TID 0000.0001) //      8 gnlmkmopvtlkklv..............yx.............................zrppmljjjgffmljjjgfffggeeddddddddefhhigghffeddffilloxy....zyxoihgggdddddddddgnlmkmop
(PID.TID 0000.0001) //      7 .................................................................xsrvshf.xsrvshfeeeeeeeeeeffgjmmnpvwvvwy++yyyyxxz......ywttqmigghggfflyz........
(PID.TID 0000.0001) //      6 ...............................................................yyyyyyupnyyyyyupnkihhggghvyyy+.........................+yyyyyyyyxxxyy............
(PID.TID 0000.0001) //      5 ................................................................xxyyxxyyxxyyxxyyyyyzz.................................++zz..zyxy................
(PID.TID 0000.0001) //      4 ................................................................................................................................................
(PID.TID 0000.0001) //      3 ................................................................................................................................................
(PID.TID 0000.0001) //      2 ................................................................................................................................................
(PID.TID 0000.0001) //      1 ................................................................................................................................................
(PID.TID 0000.0001) //      0 ................................................................................................................................................
(PID.TID 0000.0001) //     -1 ................................................................................................................................................
(PID.TID 0000.0001) //     -2 ................................................................................................................................................
(PID.TID 0000.0001) //     -3 +zsnovwy++...+zzzzzz++++...............................................................................................................++zsnovwy
(PID.TID 0000.0001) // =======================================================
(PID.TID 0000.0001) // END OF FIELD                                          =
(PID.TID 0000.0001) // =======================================================
(PID.TID 0000.0001) 
(PID.TID 0000.0001) // =======================================================
(PID.TID 0000.0001) // Field Surface reference r-position (ini_depths)
(PID.TID 0000.0001) // CMIN =          1.000000000000000E+32
(PID.TID 0000.0001) // CMAX =         -1.000000000000000E+32
(PID.TID 0000.0001) // CINT =          0.000000000000000E+00
(PID.TID 0000.0001) // SYMBOLS (CMIN->CMAX): -abcdefghijklmnopqrstuvwxyz+
(PID.TID 0000.0001) //                  0.0: .
(PID.TID 0000.0001) // RANGE I (Lo:Hi:Step):(    -3:   132:     1)
(PID.TID 0000.0001) // RANGE J (Lo:Hi:Step):(    68:    -3:    -1)
(PID.TID 0000.0001) // RANGE K (Lo:Hi:Step):(   1:   1:   1)
(PID.TID 0000.0001) // =======================================================
(PID.TID 0000.0001) // =======================================================
(PID.TID 0000.0001) // END OF FIELD                                          =
(PID.TID 0000.0001) // =======================================================
(PID.TID 0000.0001) 
(PID.TID 0000.0001) // =======================================================
(PID.TID 0000.0001) // Field Model R_low (ini_masks_etc)
(PID.TID 0000.0001) // CMIN =         -5.200000000000000E+03
(PID.TID 0000.0001) // CMAX =         -5.000000000000000E+01
(PID.TID 0000.0001) // CINT =          1.907407407407407E+02
(PID.TID 0000.0001) // SYMBOLS (CMIN->CMAX): -abcdefghijklmnopqrstuvwxyz+
(PID.TID 0000.0001) //                  0.0: .
(PID.TID 0000.0001) // RANGE I (Lo:Hi:Step):(    -3:   132:     1)
(PID.TID 0000.0001) // RANGE J (Lo:Hi:Step):(    68:    -3:    -1)
(PID.TID 0000.0001) // RANGE K (Lo:Hi:Step):(   1:   1:   1)
(PID.TID 0000.0001) // =======================================================
(PID.TID 0000.0001) K =   1
(PID.TID 0000.0001) //                I=6       I=16      I=26      I=36      I=46      I=56      I=66      I=68      I=78      I=88      I=98      I=108     I=118     I=128
(PID.TID 0000.0001) // |--J--|321012345|789012345|789012345|789012345|789012345|789012345|789012345|781234567|901234567|901234567|901234567|901234567|901234567|901234567|9012
(PID.TID 0000.0001) //     68 ................................................................................................................................................
(PID.TID 0000.0001) //     67 ................................................................................................................................................
(PID.TID 0000.0001) //     66 ................................................................................................................................................
(PID.TID 0000.0001) //     65 ................................................................................................................................................
(PID.TID 0000.0001) //     64 ................................................................................................................................................
(PID.TID 0000.0001) //     63 ................................................................................................................................................
(PID.TID 0000.0001) //     62 ................................................................................................................................................
(PID.TID 0000.0001) //     61 +zsnovwy++...+zzzzzz++++...............................................................................................................++zsnovwy
(PID.TID 0000.0001) //     60 +zrmmnot.....+zzzzzzzzz+.........................................................................................y....................zz+zrmmnot
(PID.TID 0000.0001) //     59 omjjklnoqyz++zyzzzzzzzz.........................................................................................yxwvvyy..............zzromjjklno
(PID.TID 0000.0001) //     58 sponmlmoqwzyzzzzzzzz++.............................................................................................wrtxz............zytssponmlmo
(PID.TID 0000.0001) //     57 rqmmmkmmz............................................................................................................tvz............xwurrqmmmkmm
(PID.TID 0000.0001) //     56 vqjmmuyz..............................................................................................................yx........yyyyy..zvqjmmuyz
(PID.TID 0000.0001) //     55 xwrrux..............................................................++......++.......................................+yuu.....wonrwyzzzyxwrrux..
(PID.TID 0000.0001) //     54 wyz++............................................................ymnz+++.ymnz+++......................................wmkkr..qmmotsqooruwyz++...
(PID.TID 0000.0001) //     53 v...++.................................................zzzz...omsjjjjm++sjjjjm+++.....zjghl...........................zojjjlkkloronmpvxtv...++..
(PID.TID 0000.0001) //     52 ....++................................................+xxyy...ggijjljjmpijjljjmpz.++tdeffhjm............................zmjiijlqnljlqtpo....++..
(PID.TID 0000.0001) //     51 .......................................................xvvx..ddfdhjsqmpqdhjsqmpqdbcddddefghjlz..........................zylgghhikkjhigqy........
(PID.TID 0000.0001) //     50 z+.....................................................+uutw---aaaa-----aaa------aaaabddefghjnq..........................zvogdefglkgfddpz+......
(PID.TID 0000.0001) //     49 dg+....................................................roqja--------------------------abddefhmmx..........................+whddehlnjdddddg+.....
(PID.TID 0000.0001) //     48 oxy.....................................................va------a-------a--------------addefgjlx.....................++nj+wfddfgjnmkgeddoxy.....
(PID.TID 0000.0001) //     47 t......................................................a------a----------------------aaaddefgiks...................+qfbaaahebddgoqnhfa--t.......
(PID.TID 0000.0001) //     46 v.....................................................z------d--a-d-----a-d----------------abddg..................lfdda-----bdhksrqhdacev.......
(PID.TID 0000.0001) //     45 g.....................................................b-----fb---cdhfe---cdhfe-------------aadddk................oeaaddb-abcehlnmkgcabjdg.......
(PID.TID 0000.0001) //     44 .................................................+.vgs-----ci----aaa-----aaa--------------bddddefu..............xf--ddb---adhlkihjd-bfgi........
(PID.TID 0000.0001) //     43 ................................................+ywfdng-------------a-a-----a-a--------abddddddefhr............+vd--ab----afkjgccda-deju........
(PID.TID 0000.0001) //     42 ...............................................+zveddhna-------------dde-----ddedbba----addddddeffh............+vd-------acgifaa-aaadis.........
(PID.TID 0000.0001) //     41 .........................op.....................qdeeddn---a--a--------dd------ddheddea---abddddeefgizw.......t+++n-------adifd-----dem..........
(PID.TID 0000.0001) //     40 .........................ljn.................zom----ddil---aac---fkic-df-fkic-dfdddgja------ddddegghjl.......tmv.uq------adifa--bbadfs..........
(PID.TID 0000.0001) //     39 ........................zhijj.....ppq.......rjmxa---bdfiea----acaigefghfaigefghf---cda-------adefggijjl......jkrvt.vnu--adejfa-aadehjm..........
(PID.TID 0000.0001) //     38 .......................nhggghr...llmn+.....vngt.g--aadfib---------ea---a--ea---aa---------bbbaddefggjhkjiv.....wphiggrna-agifaa---cljn..........
[...]
(PID.TID 0000.0001) %MON trcstat_ptracer03_max        =   3.2964254630417E-03
(PID.TID 0000.0001) %MON trcstat_ptracer03_min        =   4.8659026982929E-05
(PID.TID 0000.0001) %MON trcstat_ptracer03_mean       =   2.1265719813378E-03
(PID.TID 0000.0001) %MON trcstat_ptracer03_sd         =   6.9838365468371E-04
(PID.TID 0000.0001) %MON trcstat_ptracer03_del2       =   2.2274376712227E-07
(PID.TID 0000.0001) %MON trcstat_ptracer04_max        =   3.0024720004609E-04
(PID.TID 0000.0001) %MON trcstat_ptracer04_min        =  -1.8972654371557E-07
(PID.TID 0000.0001) %MON trcstat_ptracer04_mean       =   5.9487624550031E-06
(PID.TID 0000.0001) %MON trcstat_ptracer04_sd         =   2.6309642809304E-05
(PID.TID 0000.0001) %MON trcstat_ptracer04_del2       =   3.2493649484956E-08
(PID.TID 0000.0001) %MON trcstat_ptracer05_max        =   3.8397152910118E-01
(PID.TID 0000.0001) %MON trcstat_ptracer05_min        =   3.9754948526502E-03
(PID.TID 0000.0001) %MON trcstat_ptracer05_mean       =   1.6196377544504E-01
(PID.TID 0000.0001) %MON trcstat_ptracer05_sd         =   7.3415337099249E-02
(PID.TID 0000.0001) %MON trcstat_ptracer05_del2       =   3.1007118426301E-05
(PID.TID 0000.0001) // =======================================================
(PID.TID 0000.0001) // End MONITOR ptracers field statistics
(PID.TID 0000.0001) // =======================================================
(PID.TID 0000.0001)  MDS_WRITE_FIELD: it,rec,kS,kL,kH=       4     1  15   1  15 file=pickup_cd.ckptA
(PID.TID 0000.0001)  MDS_WRITE_FIELD: it,rec,kS,kL,kH=       4     2  15   1  15 file=pickup_cd.ckptA
(PID.TID 0000.0001)  MDS_WRITE_FIELD: it,rec,kS,kL,kH=       4     3  15   1  15 file=pickup_cd.ckptA
(PID.TID 0000.0001)  MDS_WRITE_FIELD: it,rec,kS,kL,kH=       4     4  15   1  15 file=pickup_cd.ckptA
(PID.TID 0000.0001)  MDS_WRITE_FIELD: it,rec,kS,kL,kH=       4    61   1   1   1 file=pickup_cd.ckptA
(PID.TID 0000.0001)  MDS_WRITE_FIELD: it,rec,kS,kL,kH=       4     1  15   1  15 file=pickup_ggl90.ckptA
(PID.TID 0000.0001)  MDS_WRITE_FIELD: it,rec,kS,kL,kH=       4    -1  15   1  15 file=pickup_ptracers.ckptA
(PID.TID 0000.0001)  MDS_WRITE_FIELD: it,rec,kS,kL,kH=       4    -2  15   1  15 file=pickup_ptracers.ckptA
(PID.TID 0000.0001)  MDS_WRITE_FIELD: it,rec,kS,kL,kH=       4    -3  15   1  15 file=pickup_ptracers.ckptA
(PID.TID 0000.0001)  MDS_WRITE_FIELD: it,rec,kS,kL,kH=       4    -4  15   1  15 file=pickup_ptracers.ckptA
(PID.TID 0000.0001)  MDS_WRITE_FIELD: it,rec,kS,kL,kH=       4    -5  15   1  15 file=pickup_ptracers.ckptA
(PID.TID 0000.0001)  MDS_WRITE_FIELD: it,rec,kS,kL,kH=       4    -1   1   1   1 file=pickup_dic.ckptA
(PID.TID 0000.0001)  MDS_WRITE_FIELD: it,rec,kS,kL,kH=       4    -1   7   1   1 file=pickup_seaice.ckptA
(PID.TID 0000.0001)  MDS_WRITE_FIELD: it,rec,kS,kL,kH=       4    -2   1   1   1 file=pickup_seaice.ckptA
(PID.TID 0000.0001)  MDS_WRITE_FIELD: it,rec,kS,kL,kH=       4    -3   1   1   1 file=pickup_seaice.ckptA
(PID.TID 0000.0001)  MDS_WRITE_FIELD: it,rec,kS,kL,kH=       4    -4   1   1   1 file=pickup_seaice.ckptA
(PID.TID 0000.0001)  MDS_WRITE_FIELD: it,rec,kS,kL,kH=       4    -5   1   1   1 file=pickup_seaice.ckptA
(PID.TID 0000.0001)  MDS_WRITE_FIELD: it,rec,kS,kL,kH=       4    -6   1   1   1 file=pickup_seaice.ckptA
(PID.TID 0000.0001)  MDS_WRITE_FIELD: it,rec,kS,kL,kH=       4    -7   1   1   1 file=pickup_seaice.ckptA
(PID.TID 0000.0001)  MDS_WRITE_FIELD: it,rec,kS,kL,kH=       4    -8   1   1   1 file=pickup_seaice.ckptA
(PID.TID 0000.0001)  MDS_WRITE_FIELD: it,rec,kS,kL,kH=       4    -9   1   1   1 file=pickup_seaice.ckptA
(PID.TID 0000.0001)  MDS_WRITE_FIELD: it,rec,kS,kL,kH=       4    -1  15   1  15 file=pickup.ckptA
(PID.TID 0000.0001)  MDS_WRITE_FIELD: it,rec,kS,kL,kH=       4    -2  15   1  15 file=pickup.ckptA
(PID.TID 0000.0001)  MDS_WRITE_FIELD: it,rec,kS,kL,kH=       4    -3  15   1  15 file=pickup.ckptA
(PID.TID 0000.0001)  MDS_WRITE_FIELD: it,rec,kS,kL,kH=       4    -4  15   1  15 file=pickup.ckptA
(PID.TID 0000.0001)  MDS_WRITE_FIELD: it,rec,kS,kL,kH=       4    -5  15   1  15 file=pickup.ckptA
(PID.TID 0000.0001)  MDS_WRITE_FIELD: it,rec,kS,kL,kH=       4    -6  15   1  15 file=pickup.ckptA
(PID.TID 0000.0001)  MDS_WRITE_FIELD: it,rec,kS,kL,kH=       4    -7  15   1  15 file=pickup.ckptA
(PID.TID 0000.0001)  MDS_WRITE_FIELD: it,rec,kS,kL,kH=       4    -8  15   1  15 file=pickup.ckptA
(PID.TID 0000.0001)  MDS_WRITE_FIELD: it,rec,kS,kL,kH=       4    -9  15   1  15 file=pickup.ckptA
(PID.TID 0000.0001)  MDS_WRITE_FIELD: it,rec,kS,kL,kH=       4   -10  15   1  15 file=pickup.ckptA
(PID.TID 0000.0001)  MDS_WRITE_FIELD: it,rec,kS,kL,kH=       4   -11  15   1  15 file=pickup.ckptA
(PID.TID 0000.0001)  MDS_WRITE_FIELD: it,rec,kS,kL,kH=       4   -12  15   1  15 file=pickup.ckptA
(PID.TID 0000.0001)  MDS_WRITE_FIELD: it,rec,kS,kL,kH=       4  -181   1   1   1 file=pickup.ckptA
(PID.TID 0000.0001)  MDS_WRITE_FIELD: it,rec,kS,kL,kH=       4  -182   1   1   1 file=pickup.ckptA
(PID.TID 0000.0001)  MDS_WRITE_FIELD: it,rec,kS,kL,kH=       4  -183   1   1   1 file=pickup.ckptA
(PID.TID 0000.0001) %CHECKPOINT         4 ckptA
(PID.TID 0000.0001)   Seconds in section "ALL                    [THE_MODEL_MAIN]":
(PID.TID 0000.0001)           User time:   1.4107779811602086
(PID.TID 0000.0001)         System time:  0.18185700429603457
(PID.TID 0000.0001)     Wall clock time:   1.6000499725341797
(PID.TID 0000.0001)          No. starts:           1
(PID.TID 0000.0001)           No. stops:           1
(PID.TID 0000.0001)   Seconds in section "INITIALISE_FIXED       [THE_MODEL_MAIN]":
(PID.TID 0000.0001)           User time:  0.36204998916946352
(PID.TID 0000.0001)         System time:   3.1405000248923898E-002
(PID.TID 0000.0001)     Wall clock time:  0.39514899253845215
(PID.TID 0000.0001)          No. starts:           1
(PID.TID 0000.0001)           No. stops:           1
(PID.TID 0000.0001)   Seconds in section "THE_MAIN_LOOP          [THE_MODEL_MAIN]":
(PID.TID 0000.0001)           User time:   1.0487030148506165
(PID.TID 0000.0001)         System time:  0.15044500306248665
(PID.TID 0000.0001)     Wall clock time:   1.2048738002777100
(PID.TID 0000.0001)          No. starts:           1
(PID.TID 0000.0001)           No. stops:           1
(PID.TID 0000.0001)   Seconds in section "INITIALISE_VARIA    [THE_MAIN_LOOP]":
(PID.TID 0000.0001)           User time:   8.2451999187469482E-002
(PID.TID 0000.0001)         System time:   7.2053004056215286E-002
(PID.TID 0000.0001)     Wall clock time:  0.15761089324951172
(PID.TID 0000.0001)          No. starts:           1
(PID.TID 0000.0001)           No. stops:           1
(PID.TID 0000.0001)   Seconds in section "MAIN LOOP           [THE_MAIN_LOOP]":
(PID.TID 0000.0001)           User time:  0.96623092889785767
(PID.TID 0000.0001)         System time:   7.8389003872871399E-002
(PID.TID 0000.0001)     Wall clock time:   1.0472428798675537
(PID.TID 0000.0001)          No. starts:           1
(PID.TID 0000.0001)           No. stops:           1
(PID.TID 0000.0001)   Seconds in section "MAIN_DO_LOOP        [THE_MAIN_LOOP]":
(PID.TID 0000.0001)           User time:  0.96620103716850281
(PID.TID 0000.0001)         System time:   7.8388005495071411E-002
(PID.TID 0000.0001)     Wall clock time:   1.0472109317779541
(PID.TID 0000.0001)          No. starts:           4
(PID.TID 0000.0001)           No. stops:           4
(PID.TID 0000.0001)   Seconds in section "FORWARD_STEP        [MAIN_DO_LOOP]":
(PID.TID 0000.0001)           User time:  0.96615105867385864
(PID.TID 0000.0001)         System time:   7.8387007117271423E-002
(PID.TID 0000.0001)     Wall clock time:   1.0471591949462891
(PID.TID 0000.0001)          No. starts:           4
(PID.TID 0000.0001)           No. stops:           4
(PID.TID 0000.0001)   Seconds in section "DO_STATEVARS_DIAGS  [FORWARD_STEP]":
(PID.TID 0000.0001)           User time:   3.6495923995971680E-004
(PID.TID 0000.0001)         System time:   1.4998018741607666E-005
(PID.TID 0000.0001)     Wall clock time:   3.8599967956542969E-004
(PID.TID 0000.0001)          No. starts:           8
(PID.TID 0000.0001)           No. stops:           8
(PID.TID 0000.0001)   Seconds in section "LOAD_FIELDS_DRIVER  [FORWARD_STEP]":
(PID.TID 0000.0001)           User time:   3.7203937768936157E-002
(PID.TID 0000.0001)         System time:   4.0619894862174988E-003
(PID.TID 0000.0001)     Wall clock time:   4.1837930679321289E-002
(PID.TID 0000.0001)          No. starts:           4
(PID.TID 0000.0001)           No. stops:           4
(PID.TID 0000.0001)   Seconds in section "EXF_GETFORCING     [LOAD_FLDS_DRIVER]":
(PID.TID 0000.0001)           User time:   3.6132991313934326E-002
(PID.TID 0000.0001)         System time:   3.0359998345375061E-003
(PID.TID 0000.0001)     Wall clock time:   3.9186954498291016E-002
(PID.TID 0000.0001)          No. starts:           4
(PID.TID 0000.0001)           No. stops:           4
(PID.TID 0000.0001)   Seconds in section "EXTERNAL_FLDS_LOAD [LOAD_FLDS_DRIVER]":
(PID.TID 0000.0001)           User time:   3.3792853355407715E-004
(PID.TID 0000.0001)         System time:   4.0009617805480957E-006
(PID.TID 0000.0001)     Wall clock time:   3.4594535827636719E-004
(PID.TID 0000.0001)          No. starts:           4
(PID.TID 0000.0001)           No. stops:           4
(PID.TID 0000.0001)   Seconds in section "DO_ATMOSPHERIC_PHYS [FORWARD_STEP]":
(PID.TID 0000.0001)           User time:   2.6911497116088867E-005
(PID.TID 0000.0001)         System time:   4.0009617805480957E-006
(PID.TID 0000.0001)     Wall clock time:   3.2901763916015625E-005
(PID.TID 0000.0001)          No. starts:           4
(PID.TID 0000.0001)           No. stops:           4
(PID.TID 0000.0001)   Seconds in section "DO_OCEANIC_PHYS     [FORWARD_STEP]":
(PID.TID 0000.0001)           User time:  0.18213701248168945
(PID.TID 0000.0001)         System time:   2.3930072784423828E-003
(PID.TID 0000.0001)     Wall clock time:  0.18454098701477051
(PID.TID 0000.0001)          No. starts:           4
(PID.TID 0000.0001)           No. stops:           4
(PID.TID 0000.0001)   Seconds in section "SEAICE_MODEL    [DO_OCEANIC_PHYS]":
(PID.TID 0000.0001)           User time:   5.3473085165023804E-002
(PID.TID 0000.0001)         System time:   7.5100362300872803E-004
(PID.TID 0000.0001)     Wall clock time:   5.4233789443969727E-002
(PID.TID 0000.0001)          No. starts:           4
(PID.TID 0000.0001)           No. stops:           4
(PID.TID 0000.0001)   Seconds in section "SEAICE_DYNSOLVER   [SEAICE_MODEL]":
(PID.TID 0000.0001)           User time:   4.2585939168930054E-002
(PID.TID 0000.0001)         System time:   4.3399631977081299E-004
(PID.TID 0000.0001)     Wall clock time:   4.3034076690673828E-002
(PID.TID 0000.0001)          No. starts:           4
(PID.TID 0000.0001)           No. stops:           4
(PID.TID 0000.0001)   Seconds in section "GGL90_CALC [DO_OCEANIC_PHYS]":
(PID.TID 0000.0001)           User time:   4.6309053897857666E-002
(PID.TID 0000.0001)         System time:   1.3900101184844971E-003
(PID.TID 0000.0001)     Wall clock time:   4.7694206237792969E-002
(PID.TID 0000.0001)          No. starts:          16
(PID.TID 0000.0001)           No. stops:          16
(PID.TID 0000.0001)   Seconds in section "GCHEM_CALC_TENDENCY [FORWARD_STEP]":
(PID.TID 0000.0001)           User time:   2.3961067199707031E-005
(PID.TID 0000.0001)         System time:   1.9967555999755859E-006
(PID.TID 0000.0001)     Wall clock time:   2.4795532226562500E-005
(PID.TID 0000.0001)          No. starts:           4
(PID.TID 0000.0001)           No. stops:           4
(PID.TID 0000.0001)   Seconds in section "THERMODYNAMICS      [FORWARD_STEP]":
(PID.TID 0000.0001)           User time:  0.43065804243087769
(PID.TID 0000.0001)         System time:   1.4479979872703552E-003
(PID.TID 0000.0001)     Wall clock time:  0.43213129043579102
(PID.TID 0000.0001)          No. starts:           4
(PID.TID 0000.0001)           No. stops:           4
(PID.TID 0000.0001)   Seconds in section "DYNAMICS            [FORWARD_STEP]":
(PID.TID 0000.0001)           User time:  0.13086110353469849
(PID.TID 0000.0001)         System time:   1.3629868626594543E-003
(PID.TID 0000.0001)     Wall clock time:  0.13224887847900391
(PID.TID 0000.0001)          No. starts:           4
(PID.TID 0000.0001)           No. stops:           4
(PID.TID 0000.0001)   Seconds in section "UPDATE_SURF_DR      [FORWARD_STEP]":
(PID.TID 0000.0001)           User time:   2.0140409469604492E-003
(PID.TID 0000.0001)         System time:   3.2998621463775635E-005
(PID.TID 0000.0001)     Wall clock time:   2.0499229431152344E-003
(PID.TID 0000.0001)          No. starts:           4
(PID.TID 0000.0001)           No. stops:           4
(PID.TID 0000.0001)   Seconds in section "SOLVE_FOR_PRESSURE  [FORWARD_STEP]":
(PID.TID 0000.0001)           User time:   1.1804163455963135E-002
(PID.TID 0000.0001)         System time:   2.5000423192977905E-004
(PID.TID 0000.0001)     Wall clock time:   1.2057781219482422E-002
(PID.TID 0000.0001)          No. starts:           4
(PID.TID 0000.0001)           No. stops:           4
(PID.TID 0000.0001)   Seconds in section "MOM_CORRECTION_STEP [FORWARD_STEP]":
(PID.TID 0000.0001)           User time:   2.8860569000244141E-003
(PID.TID 0000.0001)         System time:   4.9993395805358887E-006
(PID.TID 0000.0001)     Wall clock time:   2.8941631317138672E-003
(PID.TID 0000.0001)          No. starts:           4
(PID.TID 0000.0001)           No. stops:           4
(PID.TID 0000.0001)   Seconds in section "INTEGR_CONTINUITY   [FORWARD_STEP]":
(PID.TID 0000.0001)           User time:   2.2710561752319336E-003
(PID.TID 0000.0001)         System time:   0.0000000000000000
(PID.TID 0000.0001)     Wall clock time:   2.2757053375244141E-003
(PID.TID 0000.0001)          No. starts:           4
(PID.TID 0000.0001)           No. stops:           4
(PID.TID 0000.0001)   Seconds in section "TRC_CORRECTION_STEP [FORWARD_STEP]":
(PID.TID 0000.0001)           User time:   2.4020671844482422E-005
(PID.TID 0000.0001)         System time:   1.0058283805847168E-006
(PID.TID 0000.0001)     Wall clock time:   2.4795532226562500E-005
(PID.TID 0000.0001)          No. starts:           4
(PID.TID 0000.0001)           No. stops:           4
(PID.TID 0000.0001)   Seconds in section "GCHEM_FORCING_SEP  [FORWARD_STEP]":
(PID.TID 0000.0001)           User time:   8.8084995746612549E-002
(PID.TID 0000.0001)         System time:   1.2969970703125000E-003
(PID.TID 0000.0001)     Wall clock time:   8.9392185211181641E-002
(PID.TID 0000.0001)          No. starts:           4
(PID.TID 0000.0001)           No. stops:           4
(PID.TID 0000.0001)   Seconds in section "BLOCKING_EXCHANGES  [FORWARD_STEP]":
(PID.TID 0000.0001)           User time:   8.6009502410888672E-003
(PID.TID 0000.0001)         System time:   3.7007033824920654E-005
(PID.TID 0000.0001)     Wall clock time:   8.6498260498046875E-003
(PID.TID 0000.0001)          No. starts:           4
(PID.TID 0000.0001)           No. stops:           4
(PID.TID 0000.0001)   Seconds in section "MONITOR             [FORWARD_STEP]":
(PID.TID 0000.0001)           User time:   3.2140910625457764E-002
(PID.TID 0000.0001)         System time:   1.6499310731887817E-004
(PID.TID 0000.0001)     Wall clock time:   3.2314777374267578E-002
(PID.TID 0000.0001)          No. starts:           4
(PID.TID 0000.0001)           No. stops:           4
(PID.TID 0000.0001)   Seconds in section "DO_THE_MODEL_IO     [FORWARD_STEP]":
(PID.TID 0000.0001)           User time:   2.4742007255554199E-002
(PID.TID 0000.0001)         System time:   1.6715995967388153E-002
(PID.TID 0000.0001)     Wall clock time:   4.1756153106689453E-002
(PID.TID 0000.0001)          No. starts:           4
(PID.TID 0000.0001)           No. stops:           4
(PID.TID 0000.0001)   Seconds in section "PTRACERS_RESET      [FORWARD_STEP]":
(PID.TID 0000.0001)           User time:   2.6941299438476562E-005
(PID.TID 0000.0001)         System time:   0.0000000000000000
(PID.TID 0000.0001)     Wall clock time:   2.8133392333984375E-005
(PID.TID 0000.0001)          No. starts:           4
(PID.TID 0000.0001)           No. stops:           4
(PID.TID 0000.0001)   Seconds in section "DO_WRITE_PICKUP     [FORWARD_STEP]":
(PID.TID 0000.0001)           User time:   1.1732101440429688E-002
(PID.TID 0000.0001)         System time:   5.0514020025730133E-002
(PID.TID 0000.0001)     Wall clock time:   6.3964366912841797E-002
(PID.TID 0000.0001)          No. starts:           4
(PID.TID 0000.0001)           No. stops:           4
(PID.TID 0000.0001) // ======================================================
(PID.TID 0000.0001) // Tile <-> Tile communication statistics
(PID.TID 0000.0001) // ======================================================
(PID.TID 0000.0001) // o Tile number: 000001
(PID.TID 0000.0001) //         No. X exchanges =              0
(PID.TID 0000.0001) //            Max. X spins =              0
(PID.TID 0000.0001) //            Min. X spins =     1000000000
(PID.TID 0000.0001) //          Total. X spins =              0
(PID.TID 0000.0001) //            Avg. X spins =       0.00E+00
(PID.TID 0000.0001) //         No. Y exchanges =              0
(PID.TID 0000.0001) //            Max. Y spins =              0
(PID.TID 0000.0001) //            Min. Y spins =     1000000000
(PID.TID 0000.0001) //          Total. Y spins =              0
(PID.TID 0000.0001) //            Avg. Y spins =       0.00E+00
(PID.TID 0000.0001) // o Tile number: 000002
(PID.TID 0000.0001) //         No. X exchanges =              0
(PID.TID 0000.0001) //            Max. X spins =              0
(PID.TID 0000.0001) //            Min. X spins =     1000000000
(PID.TID 0000.0001) //          Total. X spins =              0
(PID.TID 0000.0001) //            Avg. X spins =       0.00E+00
(PID.TID 0000.0001) //         No. Y exchanges =              0
(PID.TID 0000.0001) //            Max. Y spins =              0
(PID.TID 0000.0001) //            Min. Y spins =     1000000000
(PID.TID 0000.0001) //          Total. Y spins =              0
(PID.TID 0000.0001) //            Avg. Y spins =       0.00E+00
(PID.TID 0000.0001) // o Tile number: 000003
(PID.TID 0000.0001) //         No. X exchanges =              0
(PID.TID 0000.0001) //            Max. X spins =              0
(PID.TID 0000.0001) //            Min. X spins =     1000000000
(PID.TID 0000.0001) //          Total. X spins =              0
(PID.TID 0000.0001) //            Avg. X spins =       0.00E+00
(PID.TID 0000.0001) //         No. Y exchanges =              0
(PID.TID 0000.0001) //            Max. Y spins =              0
(PID.TID 0000.0001) //            Min. Y spins =     1000000000
(PID.TID 0000.0001) //          Total. Y spins =              0
(PID.TID 0000.0001) //            Avg. Y spins =       0.00E+00
(PID.TID 0000.0001) // o Tile number: 000004
(PID.TID 0000.0001) //         No. X exchanges =              0
(PID.TID 0000.0001) //            Max. X spins =              0
(PID.TID 0000.0001) //            Min. X spins =     1000000000
(PID.TID 0000.0001) //          Total. X spins =              0
(PID.TID 0000.0001) //            Avg. X spins =       0.00E+00
(PID.TID 0000.0001) //         No. Y exchanges =              0
(PID.TID 0000.0001) //            Max. Y spins =              0
(PID.TID 0000.0001) //            Min. Y spins =     1000000000
(PID.TID 0000.0001) //          Total. Y spins =              0
(PID.TID 0000.0001) //            Avg. Y spins =       0.00E+00
(PID.TID 0000.0001) // o Thread number: 000001
(PID.TID 0000.0001) //            No. barriers =           6304
(PID.TID 0000.0001) //      Max. barrier spins =              1
(PID.TID 0000.0001) //      Min. barrier spins =              1
(PID.TID 0000.0001) //     Total barrier spins =           6304
(PID.TID 0000.0001) //      Avg. barrier spins =       1.00E+00
PROGRAM MAIN: Execution ended Normally
