(PID.TID 0000.0001) 
(PID.TID 0000.0001) // ======================================================
(PID.TID 0000.0001) //                      MITgcm UV
(PID.TID 0000.0001) //                      =========
(PID.TID 0000.0001) // ======================================================
(PID.TID 0000.0001) // execution environment starting up...
(PID.TID 0000.0001) 
(PID.TID 0000.0001) // MITgcmUV version:  checkpoint66l
(PID.TID 0000.0001) // Build user:        dmenemen
(PID.TID 0000.0001) // Build host:        LMC-051773
(PID.TID 0000.0001) // Build date:        Tue Jan 14 12:05:46 PST 2020
(PID.TID 0000.0001) 
(PID.TID 0000.0001) // =======================================================
(PID.TID 0000.0001) // Execution Environment parameter file "eedata"
(PID.TID 0000.0001) // =======================================================
(PID.TID 0000.0001) ># Example "eedata" file
(PID.TID 0000.0001) ># Lines beginning "#" are comments
(PID.TID 0000.0001) ># nTx - No. threads per process in X
(PID.TID 0000.0001) ># nTy - No. threads per process in Y
(PID.TID 0000.0001) > &EEPARMS
(PID.TID 0000.0001) > nTx=1,
(PID.TID 0000.0001) > nTy=1,
(PID.TID 0000.0001) > /
(PID.TID 0000.0001) ># Note: Some systems use & as the namelist terminator (as shown here).
(PID.TID 0000.0001) >#       Other systems use a / character.
(PID.TID 0000.0001) 
(PID.TID 0000.0001) // =======================================================
(PID.TID 0000.0001) // Computational Grid Specification ( see files "SIZE.h" )
(PID.TID 0000.0001) //                                  ( and "eedata"       )
(PID.TID 0000.0001) // =======================================================
(PID.TID 0000.0001)      nPx =    1 ; /* No. processes in X */
(PID.TID 0000.0001)      nPy =    1 ; /* No. processes in Y */
(PID.TID 0000.0001)      nSx =    2 ; /* No. tiles in X per process */
(PID.TID 0000.0001)      nSy =    2 ; /* No. tiles in Y per process */
(PID.TID 0000.0001)      sNx =   64 ; /* Tile size in X */
(PID.TID 0000.0001)      sNy =   32 ; /* Tile size in Y */
(PID.TID 0000.0001)      OLx =    4 ; /* Tile overlap distance in X */
(PID.TID 0000.0001)      OLy =    4 ; /* Tile overlap distance in Y */
(PID.TID 0000.0001)      nTx =    1 ; /* No. threads in X per process */
(PID.TID 0000.0001)      nTy =    1 ; /* No. threads in Y per process */
(PID.TID 0000.0001)       Nr =   15 ; /* No. levels in the vertical   */
(PID.TID 0000.0001)       Nx =  128 ; /* Total domain size in X ( = nPx*nSx*sNx ) */
(PID.TID 0000.0001)       Ny =   64 ; /* Total domain size in Y ( = nPy*nSy*sNy ) */
(PID.TID 0000.0001)   nTiles =    4 ; /* Total no. tiles per process ( = nSx*nSy ) */
(PID.TID 0000.0001)   nProcs =    1 ; /* Total no. processes ( = nPx*nPy ) */
(PID.TID 0000.0001) nThreads =    1 ; /* Total no. threads per process ( = nTx*nTy ) */
(PID.TID 0000.0001) usingMPI =    F ; /* Flag used to control whether MPI is in use */
(PID.TID 0000.0001)                   /*  note: To execute a program with MPI calls */
(PID.TID 0000.0001)                   /*  it must be launched appropriately e.g     */
(PID.TID 0000.0001)                   /*  "mpirun -np 64 ......"                    */
(PID.TID 0000.0001) useCoupler=    F ;/* Flag used to control communications with   */
(PID.TID 0000.0001)                   /*  other model components, through a coupler */
(PID.TID 0000.0001) debugMode =    F ; /* print debug msg. (sequence of S/R calls)  */
(PID.TID 0000.0001) printMapIncludesZeros=    F ; /* print zeros in Std.Output maps */
(PID.TID 0000.0001) maxLengthPrt1D=   65 /* maxLength of 1D array printed to StdOut */
(PID.TID 0000.0001) 
(PID.TID 0000.0001) // ======================================================
(PID.TID 0000.0001) // Mapping of tiles to threads
(PID.TID 0000.0001) // ======================================================
(PID.TID 0000.0001) // -o- Thread   1, tiles (   1:   2,   1:   2)
(PID.TID 0000.0001) 
(PID.TID 0000.0001) // ======================================================
(PID.TID 0000.0001) // Tile <-> Tile connectvity table
(PID.TID 0000.0001) // ======================================================
(PID.TID 0000.0001) // Tile number: 000001 (process no. = 000000)
(PID.TID 0000.0001) //        WEST: Tile = 000002, Process = 000000, Comm = put
(PID.TID 0000.0001) //                bi = 000002, bj = 000001
(PID.TID 0000.0001) //        EAST: Tile = 000002, Process = 000000, Comm = put
(PID.TID 0000.0001) //                bi = 000002, bj = 000001
(PID.TID 0000.0001) //       SOUTH: Tile = 000003, Process = 000000, Comm = put
(PID.TID 0000.0001) //                bi = 000001, bj = 000002
(PID.TID 0000.0001) //       NORTH: Tile = 000003, Process = 000000, Comm = put
(PID.TID 0000.0001) //                bi = 000001, bj = 000002
(PID.TID 0000.0001) // Tile number: 000002 (process no. = 000000)
(PID.TID 0000.0001) //        WEST: Tile = 000001, Process = 000000, Comm = put
(PID.TID 0000.0001) //                bi = 000001, bj = 000001
(PID.TID 0000.0001) //        EAST: Tile = 000001, Process = 000000, Comm = put
(PID.TID 0000.0001) //                bi = 000001, bj = 000001
(PID.TID 0000.0001) //       SOUTH: Tile = 000004, Process = 000000, Comm = put
(PID.TID 0000.0001) //                bi = 000002, bj = 000002
(PID.TID 0000.0001) //       NORTH: Tile = 000004, Process = 000000, Comm = put
(PID.TID 0000.0001) //                bi = 000002, bj = 000002
(PID.TID 0000.0001) // Tile number: 000003 (process no. = 000000)
(PID.TID 0000.0001) //        WEST: Tile = 000004, Process = 000000, Comm = put
(PID.TID 0000.0001) //                bi = 000002, bj = 000002
(PID.TID 0000.0001) //        EAST: Tile = 000004, Process = 000000, Comm = put
(PID.TID 0000.0001) //                bi = 000002, bj = 000002
(PID.TID 0000.0001) //       SOUTH: Tile = 000001, Process = 000000, Comm = put
(PID.TID 0000.0001) //                bi = 000001, bj = 000001
(PID.TID 0000.0001) //       NORTH: Tile = 000001, Process = 000000, Comm = put
(PID.TID 0000.0001) //                bi = 000001, bj = 000001
(PID.TID 0000.0001) // Tile number: 000004 (process no. = 000000)
(PID.TID 0000.0001) //        WEST: Tile = 000003, Process = 000000, Comm = put
(PID.TID 0000.0001) //                bi = 000001, bj = 000002
(PID.TID 0000.0001) //        EAST: Tile = 000003, Process = 000000, Comm = put
(PID.TID 0000.0001) //                bi = 000001, bj = 000002
(PID.TID 0000.0001) //       SOUTH: Tile = 000002, Process = 000000, Comm = put
(PID.TID 0000.0001) //                bi = 000002, bj = 000001
(PID.TID 0000.0001) //       NORTH: Tile = 000002, Process = 000000, Comm = put
(PID.TID 0000.0001) //                bi = 000002, bj = 000001
(PID.TID 0000.0001) 
(PID.TID 0000.0001)  INI_PARMS: opening model parameter file "data"
(PID.TID 0000.0001)  OPEN_COPY_DATA_FILE: opening file data
(PID.TID 0000.0001) // =======================================================
(PID.TID 0000.0001) // Parameter file "data"
(PID.TID 0000.0001) // =======================================================
(PID.TID 0000.0001) ># ====================
(PID.TID 0000.0001) ># | Model parameters |
(PID.TID 0000.0001) ># ====================
(PID.TID 0000.0001) >#
(PID.TID 0000.0001) ># Continuous equation parameters
(PID.TID 0000.0001) > &PARM01
(PID.TID 0000.0001) > tRef=15*20.,
(PID.TID 0000.0001) > sRef=15*35.,
(PID.TID 0000.0001) > viscA4=0.,
(PID.TID 0000.0001) > viscAh=2.E5,
(PID.TID 0000.0001) > diffKhT=0.E3,
(PID.TID 0000.0001) > diffKhS=0.E3,
(PID.TID 0000.0001) > viscAz=1.E-3,
(PID.TID 0000.0001) > diffKrBL79surf= 3.E-5,
(PID.TID 0000.0001) > diffKrBL79deep= 13.E-5,
(PID.TID 0000.0001) > diffKrBL79Ho  = -2000.,
(PID.TID 0000.0001) > diffKrBL79scl = 150.,
(PID.TID 0000.0001) > gravity=9.81,
(PID.TID 0000.0001) > rhoConst=1035.,
(PID.TID 0000.0001) > rhoConstFresh=1000.,
(PID.TID 0000.0001) > implicitFreeSurface=.TRUE.,
(PID.TID 0000.0001) > eosType='JMD95Z',
(PID.TID 0000.0001) > implicitDiffusion=.TRUE.,
(PID.TID 0000.0001) > implicitViscosity=.TRUE.,
(PID.TID 0000.0001) > ivdc_kappa=100.,
(PID.TID 0000.0001) > useSingleCpuIO=.TRUE.,
(PID.TID 0000.0001) > tempAdvScheme=2,
(PID.TID 0000.0001) > saltAdvScheme=2,
(PID.TID 0000.0001) > allowFreezing=.TRUE.,
(PID.TID 0000.0001) ># turn on looped cells
(PID.TID 0000.0001) > hFacMin=.1,
(PID.TID 0000.0001) > hFacMindz=50.,
(PID.TID 0000.0001) > useCDscheme=.TRUE.,
(PID.TID 0000.0001) > /
(PID.TID 0000.0001) >
(PID.TID 0000.0001) ># Elliptic solver parameters
(PID.TID 0000.0001) > &PARM02
(PID.TID 0000.0001) > cg2dMaxIters=1000,
(PID.TID 0000.0001) > cg2dTargetResidual=1.E-13,
(PID.TID 0000.0001) > /
(PID.TID 0000.0001) >
(PID.TID 0000.0001) ># Time stepping parameters
(PID.TID 0000.0001) > &PARM03
(PID.TID 0000.0001) > nIter0=0,
(PID.TID 0000.0001) > nTimeSteps = 4,
(PID.TID 0000.0001) > deltaTmom  = 900.,
(PID.TID 0000.0001) > tauCD =     321428.,
(PID.TID 0000.0001) > deltaTtracer= 43200.,
(PID.TID 0000.0001) > deltaTClock = 43200.,
(PID.TID 0000.0001) > abEps = 0.1,
(PID.TID 0000.0001) > pChkptFreq = 216000.,
(PID.TID 0000.0001) > chkptFreq  = 216000.,
(PID.TID 0000.0001) > dumpFreq   = 216000.,
(PID.TID 0000.0001) > taveFreq   = 216000.,
(PID.TID 0000.0001) > monitorFreq= 86400.,
(PID.TID 0000.0001) > tauThetaClimRelax = 5184000.,
(PID.TID 0000.0001) > tauSaltClimRelax  = 7776000.,
(PID.TID 0000.0001) > periodicExternalForcing=.TRUE.,
(PID.TID 0000.0001) > externForcingPeriod=2592000.,
(PID.TID 0000.0001) > externForcingCycle=31104000.,
(PID.TID 0000.0001) > monitorFreq= 1.,
(PID.TID 0000.0001) > /
(PID.TID 0000.0001) >
(PID.TID 0000.0001) ># Gridding parameters
(PID.TID 0000.0001) > &PARM04
(PID.TID 0000.0001) > usingSphericalPolarGrid=.TRUE.,
(PID.TID 0000.0001) > delZ=  50., 70.,  100., 140., 190.,
(PID.TID 0000.0001) >       240., 290., 340., 390., 440.,
(PID.TID 0000.0001) >       490., 540., 590., 640., 690.,
(PID.TID 0000.0001) > ygOrigin=-90.,
(PID.TID 0000.0001) > delX=128*2.8125,
(PID.TID 0000.0001) > delY=64*2.8125,
(PID.TID 0000.0001) > /
(PID.TID 0000.0001) >
(PID.TID 0000.0001) ># Input datasets
(PID.TID 0000.0001) > &PARM05
(PID.TID 0000.0001) > bathyFile=      'bathy.bin',
(PID.TID 0000.0001) > hydrogThetaFile='Theta.0005184000',
(PID.TID 0000.0001) > hydrogSaltFile= 'Salt.0005184000',
(PID.TID 0000.0001) > uVelInitFile=   'Uvel.0005184000',
(PID.TID 0000.0001) > vVelInitFile=   'Vvel.0005184000',
(PID.TID 0000.0001) > pSurfInitFile=  'Eta.0005184000',
(PID.TID 0000.0001) > zonalWindFile=  'tren_taux.bin',
(PID.TID 0000.0001) > meridWindFile=  'tren_tauy.bin',
(PID.TID 0000.0001) > thetaClimFile=  'lev_monthly_temp.bin',
(PID.TID 0000.0001) > saltClimFile=   'lev_monthly_salt.bin',
(PID.TID 0000.0001) > surfQFile=      'shi_qnet.bin',
(PID.TID 0000.0001) > EmPmRFile=      'shi_empmr_year.bin',
(PID.TID 0000.0001) > /
(PID.TID 0000.0001) 
(PID.TID 0000.0001)  INI_PARMS ; starts to read PARM01
(PID.TID 0000.0001)  INI_PARMS ; read PARM01 : OK
(PID.TID 0000.0001)  INI_PARMS ; starts to read PARM02
(PID.TID 0000.0001)  INI_PARMS ; read PARM02 : OK
(PID.TID 0000.0001)  INI_PARMS ; starts to read PARM03
(PID.TID 0000.0001)  INI_PARMS ; read PARM03 : OK
(PID.TID 0000.0001)  INI_PARMS ; starts to read PARM04
(PID.TID 0000.0001)  INI_PARMS ; read PARM04 : OK
(PID.TID 0000.0001)  INI_PARMS ; starts to read PARM05
(PID.TID 0000.0001)  INI_PARMS ; read PARM05 : OK
(PID.TID 0000.0001)  INI_PARMS: finished reading file "data"
(PID.TID 0000.0001)  PACKAGES_BOOT: opening data.pkg
(PID.TID 0000.0001)  OPEN_COPY_DATA_FILE: opening file data.pkg
(PID.TID 0000.0001) // =======================================================
(PID.TID 0000.0001) // Parameter file "data.pkg"
(PID.TID 0000.0001) // =======================================================
(PID.TID 0000.0001) ># Packages
(PID.TID 0000.0001) > &PACKAGES
(PID.TID 0000.0001) > useGMRedi=.TRUE.,
(PID.TID 0000.0001) > usePTRACERS=.TRUE.,
(PID.TID 0000.0001) > useGCHEM=.TRUE.,
(PID.TID 0000.0001) >#useMNC=.TRUE.,
(PID.TID 0000.0001) > useDiagnostics=.TRUE.,
(PID.TID 0000.0001) > /
(PID.TID 0000.0001) >
(PID.TID 0000.0001) 
(PID.TID 0000.0001)  PACKAGES_BOOT: finished reading data.pkg
(PID.TID 0000.0001)  PACKAGES_BOOT: On/Off package Summary
 --------  pkgs with a standard "usePKG" On/Off switch in "data.pkg":  --------
 pkg/ggl90                compiled but not used ( useGGL90                 = F )
 pkg/gmredi               compiled   and   used ( useGMRedi                = T )
 pkg/cal                  compiled but not used ( useCAL                   = F )
 pkg/exf                  compiled but not used ( useEXF                   = F )
 pkg/ptracers             compiled   and   used ( usePTRACERS              = T )
 pkg/gchem                compiled   and   used ( useGCHEM                 = T )
 pkg/seaice               compiled but not used ( useSEAICE                = F )
 pkg/salt_plume           compiled but not used ( useSALT_PLUME            = F )
 pkg/diagnostics          compiled   and   used ( useDiagnostics           = T )
 -------- pkgs without standard "usePKG" On/Off switch in "data.pkg":  --------
 pkg/generic_advdiff      compiled   and   used ( useGAD                   = T )
 pkg/mom_common           compiled   and   used ( momStepping              = T )
 pkg/mom_vecinv           compiled but not used ( +vectorInvariantMomentum = F )
 pkg/mom_fluxform         compiled   and   used ( & not vectorInvariantMom = T )
 pkg/cd_code              compiled   and   used ( useCDscheme              = T )
 pkg/monitor              compiled   and   used ( monitorFreq > 0.         = T )
 pkg/timeave              compiled   and   used ( taveFreq > 0.            = T )
 pkg/debug                compiled but not used ( debugMode                = F )
 pkg/rw                   compiled   and   used
 pkg/mdsio                compiled   and   used
(PID.TID 0000.0001)  PACKAGES_BOOT: End of package Summary
(PID.TID 0000.0001) 
(PID.TID 0000.0001)  GM_READPARMS: opening data.gmredi
(PID.TID 0000.0001)  OPEN_COPY_DATA_FILE: opening file data.gmredi
(PID.TID 0000.0001) // =======================================================
(PID.TID 0000.0001) // Parameter file "data.gmredi"
(PID.TID 0000.0001) // =======================================================
(PID.TID 0000.0001) ># from MOM
(PID.TID 0000.0001) ># GM_background_K: 	isopycnal diffusion coefficien
(PID.TID 0000.0001) ># GM_maxSlope:		max slope of isopycnals
(PID.TID 0000.0001) ># GM_Scrit:		transition for scaling diffusion coefficient
(PID.TID 0000.0001) ># GM_Sd:		half width scaling for diffusion coefficient
(PID.TID 0000.0001) ># real background diff:	horizontal diffusion
(PID.TID 0000.0001) >
(PID.TID 0000.0001) ># ifdef GM_VISBECK_VARIABLE_K, include following in GM_PARM01
(PID.TID 0000.0001) ># GM_Visbeck_alpha   = 0.,
(PID.TID 0000.0001) ># GM_Visbeck_length  = 2.e+5,
(PID.TID 0000.0001) ># GM_Visbeck_depth   = 1.e+3,
(PID.TID 0000.0001) ># GM_Visbeck_maxval_K= 2.5e+3,
(PID.TID 0000.0001) >
(PID.TID 0000.0001) > &GM_PARM01
(PID.TID 0000.0001) >  GM_background_K    = 1.e+3,
(PID.TID 0000.0001) >  GM_taper_scheme    = 'gkw91',
(PID.TID 0000.0001) >  GM_maxSlope        = 1.e-2,
(PID.TID 0000.0001) >  GM_Kmin_horiz      = 100.,
(PID.TID 0000.0001) >  GM_Scrit           = 4.e-3,
(PID.TID 0000.0001) >  GM_Sd              = 1.e-3,
(PID.TID 0000.0001) > /
(PID.TID 0000.0001) >
(PID.TID 0000.0001) >
(PID.TID 0000.0001) 
(PID.TID 0000.0001)  GM_READPARMS: finished reading data.gmredi
(PID.TID 0000.0001)  PTRACERS_READPARMS: opening data.ptracers
(PID.TID 0000.0001)  OPEN_COPY_DATA_FILE: opening file data.ptracers
(PID.TID 0000.0001) // =======================================================
(PID.TID 0000.0001) // Parameter file "data.ptracers"
(PID.TID 0000.0001) // =======================================================
(PID.TID 0000.0001) > &PTRACERS_PARM01
(PID.TID 0000.0001) > PTRACERS_numInUse=5,
(PID.TID 0000.0001) > PTRACERS_Iter0= 0,
(PID.TID 0000.0001) ># tracer 1 - dic
(PID.TID 0000.0001) > PTRACERS_names(1)='DIC',
(PID.TID 0000.0001) > PTRACERS_long_names(1)='Dissolved Inorganic Carbon (DIC) [mol C/m^3]',
(PID.TID 0000.0001) > PTRACERS_units(1)='mol/m^3',
(PID.TID 0000.0001) > PTRACERS_advScheme(1)=77,
(PID.TID 0000.0001) > PTRACERS_diffKh(1)=0.E3,
(PID.TID 0000.0001) > PTRACERS_diffKr(1)=3.E-5,
(PID.TID 0000.0001) > PTRACERS_useGMRedi(1)=.TRUE.,
(PID.TID 0000.0001) > PTRACERS_initialFile(1)='DIC.0005184000',
(PID.TID 0000.0001) >#- use F95 syntax (to be converted with -DNML_EXTENDED_F77 if needed)
(PID.TID 0000.0001) > PTRACERS_ref(1:15,1) = 2.0282, 2.0609, 2.1206, 2.1581,
(PID.TID 0000.0001) >                     2.1904, 2.2188, 2.2474, 2.2699,
(PID.TID 0000.0001) >                     2.2792, 2.2814, 2.2815, 2.2806,
(PID.TID 0000.0001) >                     2.2800, 2.2760, 2.2758,
(PID.TID 0000.0001) > PTRACERS_EvPrRn(1)= 0.,
(PID.TID 0000.0001) ># tracer 2 - alk
(PID.TID 0000.0001) > PTRACERS_names(2)='Alk',
(PID.TID 0000.0001) > PTRACERS_long_names(2)='Alkalinity (Alk) [mol eq/m^3]',
(PID.TID 0000.0001) > PTRACERS_units(2)='mol/m^3',
(PID.TID 0000.0001) > PTRACERS_advScheme(2)=77,
(PID.TID 0000.0001) > PTRACERS_diffKh(2)=0.E3,
(PID.TID 0000.0001) > PTRACERS_diffKr(2)=3.E-5,
(PID.TID 0000.0001) > PTRACERS_useGMRedi(2)=.TRUE.,
(PID.TID 0000.0001) > PTRACERS_initialFile(2)='Alk.0005184000',
(PID.TID 0000.0001) >#- use F95 syntax (to be converted with -DNML_EXTENDED_F77 if needed)
(PID.TID 0000.0001) > PTRACERS_ref(1:15,2) = 2.3086, 2.3149, 2.3164, 2.3112,
(PID.TID 0000.0001) >                     2.3098, 2.3160, 2.3313, 2.3517,
(PID.TID 0000.0001) >                     2.3667, 2.3761, 2.3832, 2.3862,
(PID.TID 0000.0001) >                     2.3881, 2.3863, 2.3867,
(PID.TID 0000.0001) > PTRACERS_EvPrRn(2)= 0.,
(PID.TID 0000.0001) ># tracer 3 - po4
(PID.TID 0000.0001) > PTRACERS_names(3)='PO4',
(PID.TID 0000.0001) > PTRACERS_long_names(3)='Phosphate (PO4) [mol P/m^3]',
(PID.TID 0000.0001) > PTRACERS_units(3)='mol/m^3',
(PID.TID 0000.0001) > PTRACERS_advScheme(3)=77,
(PID.TID 0000.0001) > PTRACERS_diffKh(3)=0.E3,
(PID.TID 0000.0001) > PTRACERS_diffKr(3)=3.E-5,
(PID.TID 0000.0001) > PTRACERS_useGMRedi(3)=.TRUE.,
(PID.TID 0000.0001) > PTRACERS_initialFile(3)='PO4.0005184000',
(PID.TID 0000.0001) >#- use F95 syntax (to be converted with -DNML_EXTENDED_F77 if needed)
(PID.TID 0000.0001) > PTRACERS_ref(1:15,3) = 0.5438E-3, 0.7821E-3, 1.1335E-3, 1.4913E-3,
(PID.TID 0000.0001) >                     1.8606E-3, 2.1986E-3, 2.3966E-3, 2.4187E-3,
(PID.TID 0000.0001) >                     2.4046E-3, 2.3291E-3, 2.2922E-3, 2.2886E-3,
(PID.TID 0000.0001) >                     2.2608E-3, 2.2356E-3, 2.2296E-3,
(PID.TID 0000.0001) >#PTRACERS_EvPrRn(3)= 0.,
(PID.TID 0000.0001) ># tracer 4 - dop
(PID.TID 0000.0001) > PTRACERS_names(4)='DOP',
(PID.TID 0000.0001) > PTRACERS_long_names(4)='Dissolved Organic Phosphorus (DOP) [mol P/m^3]',
(PID.TID 0000.0001) > PTRACERS_units(4)='mol/m^3',
(PID.TID 0000.0001) > PTRACERS_advScheme(4)=77,
(PID.TID 0000.0001) > PTRACERS_diffKh(4)=0.E3,
(PID.TID 0000.0001) > PTRACERS_diffKr(4)=3.E-5,
(PID.TID 0000.0001) > PTRACERS_useGMRedi(4)=.TRUE.,
(PID.TID 0000.0001) > PTRACERS_initialFile(4)='DOP.0005184000',
(PID.TID 0000.0001) >#- use F95 syntax (to be converted with -DNML_EXTENDED_F77 if needed)
(PID.TID 0000.0001) > PTRACERS_ref(1:15,4) = 15*0.,
(PID.TID 0000.0001) >#PTRACERS_EvPrRn(4)= 0.,
(PID.TID 0000.0001) ># tracer 5 - o2
(PID.TID 0000.0001) > PTRACERS_names(5)='O2',
(PID.TID 0000.0001) > PTRACERS_long_names(5)='Dissolved Oxygen (O2) [mol O/m^3]',
(PID.TID 0000.0001) > PTRACERS_units(5)='mol/m^3',
(PID.TID 0000.0001) > PTRACERS_advScheme(5)=77,
(PID.TID 0000.0001) > PTRACERS_diffKh(5)=0.E3,
(PID.TID 0000.0001) > PTRACERS_diffKr(5)=3.E-5,
(PID.TID 0000.0001) > PTRACERS_useGMRedi(5)=.TRUE.,
(PID.TID 0000.0001) > PTRACERS_initialFile(5)='O2.0005184000',
(PID.TID 0000.0001) >#- use F95 syntax (to be converted with -DNML_EXTENDED_F77 if needed)
(PID.TID 0000.0001) > PTRACERS_ref(1:15,5) = 0.2457, 0.2336, 0.1975, 0.1729,
(PID.TID 0000.0001) >                     0.1591, 0.1503, 0.1424, 0.1445,
(PID.TID 0000.0001) >                     0.1549, 0.1661, 0.1774, 0.1863,
(PID.TID 0000.0001) >                     0.1925, 0.2021, 0.2051,
(PID.TID 0000.0001) >#PTRACERS_EvPrRn(5)= 0.,
(PID.TID 0000.0001) > /
(PID.TID 0000.0001) 
(PID.TID 0000.0001)  PTRACERS_READPARMS: finished reading data.ptracers
(PID.TID 0000.0001)  GCHEM_READPARMS: opening data.gchem
(PID.TID 0000.0001)  OPEN_COPY_DATA_FILE: opening file data.gchem
(PID.TID 0000.0001) // =======================================================
(PID.TID 0000.0001) // Parameter file "data.gchem"
(PID.TID 0000.0001) // =======================================================
(PID.TID 0000.0001) > &GCHEM_PARM01
(PID.TID 0000.0001) >  useDIC=.TRUE.,
(PID.TID 0000.0001) >  nsubtime=1,
(PID.TID 0000.0001) > /
(PID.TID 0000.0001) 
(PID.TID 0000.0001)  GCHEM_READPARMS: finished reading data.gchem
(PID.TID 0000.0001)  DIC_READPARMS: opening data.dic
(PID.TID 0000.0001)  OPEN_COPY_DATA_FILE: opening file data.dic
(PID.TID 0000.0001) // =======================================================
(PID.TID 0000.0001) // Parameter file "data.dic"
(PID.TID 0000.0001) // =======================================================
(PID.TID 0000.0001) ># DIC parameters
(PID.TID 0000.0001) > &ABIOTIC_PARMS
(PID.TID 0000.0001) > /
(PID.TID 0000.0001) >
(PID.TID 0000.0001) > &BIOTIC_PARMS
(PID.TID 0000.0001) >  alphaUniform = 0.97e-10,
(PID.TID 0000.0001) >  rainRatioUniform = 5.e-2,
(PID.TID 0000.0001) >  KRemin = 0.95,
(PID.TID 0000.0001) > /
(PID.TID 0000.0001) >
(PID.TID 0000.0001) > &DIC_FORCING
(PID.TID 0000.0001) >  DIC_iceFile='fice.bin',
(PID.TID 0000.0001) >  DIC_windFile='tren_speed.bin',
(PID.TID 0000.0001) >  DIC_silicaFile='sillev1.bin',
(PID.TID 0000.0001) > /
(PID.TID 0000.0001) 
(PID.TID 0000.0001)  DIC_READPARMS: finished reading data.dic
(PID.TID 0000.0001) 
(PID.TID 0000.0001) // ===================================
(PID.TID 0000.0001) // DIC package parameters :
(PID.TID 0000.0001) // ===================================
(PID.TID 0000.0001) permil = /* Ref. density to convert mol/m3 to mol/kg */
(PID.TID 0000.0001)                 9.760858955588092E-04
(PID.TID 0000.0001)     ;
(PID.TID 0000.0001) Pa2Atm = /* Atmosph. pressure conversion coeff (to Atm) */
(PID.TID 0000.0001)                 1.013250000000000E+05
(PID.TID 0000.0001)     ;
(PID.TID 0000.0001) DOPfraction = /* Fraction of new production going to DOP */
(PID.TID 0000.0001)                 6.700000000000000E-01
(PID.TID 0000.0001)     ;
(PID.TID 0000.0001) KDOPRemin = /* DOP remineralization rate (1/s) */
(PID.TID 0000.0001)                 6.430041152263375E-08
(PID.TID 0000.0001)     ;
(PID.TID 0000.0001) KRemin = /* Remin power law coeff. */
(PID.TID 0000.0001)                 9.500000000000000E-01
(PID.TID 0000.0001)     ;
(PID.TID 0000.0001) zcrit = /* Minimum depth for biological activity (m) */
(PID.TID 0000.0001)                 5.000000000000000E+02
(PID.TID 0000.0001)     ;
(PID.TID 0000.0001) O2crit = /* Critical oxygen level (mol/m3) */
(PID.TID 0000.0001)                 4.000000000000000E-03
(PID.TID 0000.0001)     ;
(PID.TID 0000.0001) R_OP = /* Stochiometric ratio R_OP */
(PID.TID 0000.0001)                -1.700000000000000E+02
(PID.TID 0000.0001)     ;
(PID.TID 0000.0001) R_CP = /* Stochiometric ratio R_CP */
(PID.TID 0000.0001)                 1.170000000000000E+02
(PID.TID 0000.0001)     ;
(PID.TID 0000.0001) R_NP = /* Stochiometric ratio R_NP */
(PID.TID 0000.0001)                 1.600000000000000E+01
(PID.TID 0000.0001)     ;
(PID.TID 0000.0001) R_FeP = /* Stochiometric ratio R_FeP */
(PID.TID 0000.0001)                 4.680000000000000E-04
(PID.TID 0000.0001)     ;
(PID.TID 0000.0001) zca = /* Scale depth for CaCO3 remineralization (m) */
(PID.TID 0000.0001)                 3.500000000000000E+03
(PID.TID 0000.0001)     ;
(PID.TID 0000.0001) parfrac = /* Fraction of Qsw that is PAR */
(PID.TID 0000.0001)                 4.000000000000000E-01
(PID.TID 0000.0001)     ;
(PID.TID 0000.0001) k0 = /* Light attentuation coefficient, water (1/m) */
(PID.TID 0000.0001)                 2.000000000000000E-02
(PID.TID 0000.0001)     ;
(PID.TID 0000.0001) kchl = /* Light attentuation coefficient, chlorophyll (m2/mg) */
(PID.TID 0000.0001)                 2.000000000000000E-02
(PID.TID 0000.0001)     ;
(PID.TID 0000.0001) lit0 = /* Half saturation light constant (W/m2) */
(PID.TID 0000.0001)                 3.000000000000000E+01
(PID.TID 0000.0001)     ;
(PID.TID 0000.0001) KPO4 = /* Half saturation phosphate constant (mol/m3) */
(PID.TID 0000.0001)                 5.000000000000000E-04
(PID.TID 0000.0001)     ;
(PID.TID 0000.0001) KFE = /* Half saturation fe constant (mol/m3) */
(PID.TID 0000.0001)                 1.200000000000000E-07
(PID.TID 0000.0001)     ;
(PID.TID 0000.0001) alpfe = /* Solubility of aeolian fe */
(PID.TID 0000.0001)                 1.000000000000000E-02
(PID.TID 0000.0001)     ;
(PID.TID 0000.0001) fesedflux_pcm = /* Sediment Fe flux = fesedflux_pcm*pflux+FeIntSec */
(PID.TID 0000.0001)                 7.208000000000001E-02
(PID.TID 0000.0001)     ;
(PID.TID 0000.0001) FeIntSec = /* Sediment Fe flux = fesedflux_pcm * pflux + FeIntSec */
(PID.TID 0000.0001)                 5.787037037037037E-12
(PID.TID 0000.0001)     ;
(PID.TID 0000.0001) freefemax = /* Max solubility of free iron (mol/m3) */
(PID.TID 0000.0001)                 3.000000000000000E-07
(PID.TID 0000.0001)     ;
(PID.TID 0000.0001) KScav = /* Iron scavenging rate */
(PID.TID 0000.0001)                 6.108539094650206E-09
(PID.TID 0000.0001)     ;
(PID.TID 0000.0001) ligand_stab = /* Ligand-free iron stability constant (m3/mol) */
(PID.TID 0000.0001)                 1.000000000000000E+08
(PID.TID 0000.0001)     ;
(PID.TID 0000.0001) ligand_tot = /* Total free ligand  (mol/m3) */
(PID.TID 0000.0001)                 1.000000000000000E-06
(PID.TID 0000.0001)     ;
(PID.TID 0000.0001) alphaUniform = /* Timescale for biological activity */
(PID.TID 0000.0001)                 9.700000000000000E-11
(PID.TID 0000.0001)     ;
(PID.TID 0000.0001) rainRatioUniform= /* Inorganic/organic carbon rain ratio */
(PID.TID 0000.0001)                 5.000000000000000E-02
(PID.TID 0000.0001)     ;
(PID.TID 0000.0001) QSW_underice  =  /* Flag for Qsw under Sea-Ice (i.e. SI fract included) */
(PID.TID 0000.0001)                   F
(PID.TID 0000.0001)     ;
(PID.TID 0000.0001) DIC_windFile =  /* File name of wind speeds */
(PID.TID 0000.0001)               'tren_speed.bin'
(PID.TID 0000.0001)     ;
(PID.TID 0000.0001) DIC_atmospFile=  /* File name of atmospheric pressure*/
(PID.TID 0000.0001)               ''
(PID.TID 0000.0001)     ;
(PID.TID 0000.0001) DIC_iceFile =  /* File name of seaice fraction */
(PID.TID 0000.0001)               'fice.bin'
(PID.TID 0000.0001)     ;
(PID.TID 0000.0001) DIC_ironFile =  /* File name of aeolian iron flux */
(PID.TID 0000.0001)               ''
(PID.TID 0000.0001)     ;
(PID.TID 0000.0001) DIC_silicaFile=  /* File name of surface silica */
(PID.TID 0000.0001)               'sillev1.bin'
(PID.TID 0000.0001)     ;
(PID.TID 0000.0001) DIC_parFile=  /* File name of photosynthetically available radiation */
(PID.TID 0000.0001)               ''
(PID.TID 0000.0001)     ;
(PID.TID 0000.0001) DIC_chlaFile=  /* File name of chlorophyll climatology */
(PID.TID 0000.0001)               ''
(PID.TID 0000.0001)     ;
(PID.TID 0000.0001) DIC_forcingPeriod = /* Periodic forcing parameter specific for DIC (s) */
(PID.TID 0000.0001)                 2.592000000000000E+06
(PID.TID 0000.0001)     ;
(PID.TID 0000.0001) DIC_forcingCycle = /* Periodic forcing parameter specific for DIC (s) */
(PID.TID 0000.0001)                 3.110400000000000E+07
(PID.TID 0000.0001)     ;
(PID.TID 0000.0001) dic_int1 =  /*  */
(PID.TID 0000.0001)                       0
(PID.TID 0000.0001)     ;
(PID.TID 0000.0001) dic_int2 =  /*  */
(PID.TID 0000.0001)                       0
(PID.TID 0000.0001)     ;
(PID.TID 0000.0001) dic_int3 =  /*  */
(PID.TID 0000.0001)                       0
(PID.TID 0000.0001)     ;
(PID.TID 0000.0001) dic_int4 =  /*  */
(PID.TID 0000.0001)                       0
(PID.TID 0000.0001)     ;
(PID.TID 0000.0001) dic_pCO2 = /* Atmospheric pCO2 to be read in data.dic */
(PID.TID 0000.0001)                 2.780000000000000E-04
(PID.TID 0000.0001)     ;
(PID.TID 0000.0001)  DIAGNOSTICS_READPARMS: opening data.diagnostics
(PID.TID 0000.0001)  OPEN_COPY_DATA_FILE: opening file data.diagnostics
(PID.TID 0000.0001) // =======================================================
(PID.TID 0000.0001) // Parameter file "data.diagnostics"
(PID.TID 0000.0001) // =======================================================
(PID.TID 0000.0001) ># Diagnostic Package Choices
(PID.TID 0000.0001) >#--------------------
(PID.TID 0000.0001) >#  dumpAtLast (logical): always write output at the end of simulation (default=F)
(PID.TID 0000.0001) >#  diag_mnc   (logical): write to NetCDF files (default=useMNC)
(PID.TID 0000.0001) >#--for each output-stream:
(PID.TID 0000.0001) >#  fileName(n) : prefix of the output file name (max 80c long) for outp.stream n
(PID.TID 0000.0001) >#  frequency(n):< 0 : write snap-shot output every |frequency| seconds
(PID.TID 0000.0001) >#               > 0 : write time-average output every frequency seconds
(PID.TID 0000.0001) >#  timePhase(n)     : write at time = timePhase + multiple of |frequency|
(PID.TID 0000.0001) >#    averagingFreq  : frequency (in s) for periodic averaging interval
(PID.TID 0000.0001) >#    averagingPhase : phase     (in s) for periodic averaging interval
(PID.TID 0000.0001) >#    repeatCycle    : number of averaging intervals in 1 cycle
(PID.TID 0000.0001) >#  levels(:,n) : list of levels to write to file (Notes: declared as REAL)
(PID.TID 0000.0001) >#                when this entry is missing, select all common levels of this list
(PID.TID 0000.0001) >#  fields(:,n) : list of selected diagnostics fields (8.c) in outp.stream n
(PID.TID 0000.0001) >#                (see "available_diagnostics.log" file for the full list of diags)
(PID.TID 0000.0001) >#  missing_value(n) : missing value for real-type fields in output file "n"
(PID.TID 0000.0001) >#  fileFlags(n)     : specific code (8c string) for output file "n"
(PID.TID 0000.0001) >#--------------------
(PID.TID 0000.0001) > &DIAGNOSTICS_LIST
(PID.TID 0000.0001) >  fields(1:10,1) = 'ETAN    ','ETANSQ  ','DETADT2 ','PHIBOT  ','PHIBOTSQ',
(PID.TID 0000.0001) >                   'DICTFLX ','DICOFLX ','DICCFLX ','DICPCO2 ','DICPHAV ',
(PID.TID 0000.0001) >   levels(1,1) = 1.,
(PID.TID 0000.0001) >   fileName(1) = 'surfDiag',
(PID.TID 0000.0001) >  frequency(1) = 432000.,
(PID.TID 0000.0001) >  frequency(1) = 172800.,
(PID.TID 0000.0001) >  fields(1:18,2) = 'UVEL    ','VVEL    ','WVEL    ','PHIHYD  ',
(PID.TID 0000.0001) >                   'UVELMASS','VVELMASS',
(PID.TID 0000.0001) >                   'UVELSQ  ','VVELSQ  ','UV_VEL_C','THETASQ ',
(PID.TID 0000.0001) >                   'THETA   ','UTHMASS ','VTHMASS ','WVELTH  ',
(PID.TID 0000.0001) >                   'SALT    ','USLTMASS','VSLTMASS','WVELSLT ',
(PID.TID 0000.0001) >#  fileName(2) = 'dynDiag',
(PID.TID 0000.0001) >  frequency(2) = 0.,
(PID.TID 0000.0001) >  fields(1:5,3)  = 'DICBIOA ','DICCARB ',
(PID.TID 0000.0001) >                   'TRAC05  ','ADVxTr05','DFrITr05',
(PID.TID 0000.0001) >#  fileName(3) = 'dicDiag',
(PID.TID 0000.0001) >  frequency(3) = 172800.,
(PID.TID 0000.0001) >  fields(1:8,4)  = 'ADVx_TH ','ADVy_TH ','ADVr_TH ',
(PID.TID 0000.0001) >                   'DFxE_TH ','DFyE_TH ','DFrE_TH ',
(PID.TID 0000.0001) >                   'DFrI_TH ',
(PID.TID 0000.0001) >                   'ADVx_SLT',
(PID.TID 0000.0001) >#  fileName(4) = 'flxDiag',
(PID.TID 0000.0001) >  frequency(4) = 0.,
(PID.TID 0000.0001) > /
(PID.TID 0000.0001) >
(PID.TID 0000.0001) >#--------------------
(PID.TID 0000.0001) ># Parameter for Diagnostics of per level statistics:
(PID.TID 0000.0001) >#--------------------
(PID.TID 0000.0001) >#  diagSt_mnc (logical): write stat-diags to NetCDF files (default=diag_mnc)
(PID.TID 0000.0001) >#  diagSt_regMaskFile : file containing the region-mask to read-in
(PID.TID 0000.0001) >#  nSetRegMskFile   : number of region-mask sets within the region-mask file
(PID.TID 0000.0001) >#  set_regMask(i)   : region-mask set-index that identifies the region "i"
(PID.TID 0000.0001) >#  val_regMask(i)   : region "i" identifier value in the region mask
(PID.TID 0000.0001) >#--for each output-stream:
(PID.TID 0000.0001) >#  stat_fName(n) : prefix of the output file name (max 80c long) for outp.stream n
(PID.TID 0000.0001) >#  stat_freq(n):< 0 : write snap-shot output every |stat_freq| seconds
(PID.TID 0000.0001) >#               > 0 : write time-average output every stat_freq seconds
(PID.TID 0000.0001) >#  stat_phase(n)    : write at time = stat_phase + multiple of |stat_freq|
(PID.TID 0000.0001) >#  stat_region(:,n) : list of "regions" (default: 1 region only=global)
(PID.TID 0000.0001) >#  stat_fields(:,n) : list of selected diagnostics fields (8.c) in outp.stream n
(PID.TID 0000.0001) >#                (see "available_diagnostics.log" file for the full list of diags)
(PID.TID 0000.0001) >#--------------------
(PID.TID 0000.0001) > &DIAG_STATIS_PARMS
(PID.TID 0000.0001) >#- an example just to check the agreement with MONITOR output:
(PID.TID 0000.0001) >#stat_fields(1:5,1)  = 'ETAN    ','UVEL    ','VVEL    ','WVEL    ', 'THETA   ',
(PID.TID 0000.0001) ># stat_fName(1) = 'dynStDiag',
(PID.TID 0000.0001) >#  stat_freq(1) = -864000.,
(PID.TID 0000.0001) ># stat_phase(1) = 0.,
(PID.TID 0000.0001) > /
(PID.TID 0000.0001) >
(PID.TID 0000.0001) 
(PID.TID 0000.0001) S/R DIAGNOSTICS_READPARMS, read namelist "diagnostics_list": start
(PID.TID 0000.0001) S/R DIAGNOSTICS_READPARMS, read namelist "diagnostics_list": OK
(PID.TID 0000.0001) S/R DIAGNOSTICS_READPARMS, read namelist "DIAG_STATIS_PARMS": start
(PID.TID 0000.0001) S/R DIAGNOSTICS_READPARMS, read namelist "DIAG_STATIS_PARMS": OK
(PID.TID 0000.0001)  DIAGNOSTICS_READPARMS: global parameter summary:
(PID.TID 0000.0001)  dumpAtLast = /* always write time-ave diags at the end */
(PID.TID 0000.0001)                   F
(PID.TID 0000.0001)     ;
(PID.TID 0000.0001)  diag_mnc =   /* write NetCDF output files */
(PID.TID 0000.0001)                   F
(PID.TID 0000.0001)     ;
(PID.TID 0000.0001)  useMissingValue = /* put MissingValue where mask = 0 */
(PID.TID 0000.0001)                   F
(PID.TID 0000.0001)     ;
(PID.TID 0000.0001)  diagCG_maxIters = /* max number of iters in diag_cg2d */
(PID.TID 0000.0001)                    1000
(PID.TID 0000.0001)     ;
(PID.TID 0000.0001)  diagCG_resTarget = /* residual target for diag_cg2d */
(PID.TID 0000.0001)                 1.000000000000000E-13
(PID.TID 0000.0001)     ;
(PID.TID 0000.0001)  diagCG_pcOffDFac = /* preconditioner off-diagonal factor */
(PID.TID 0000.0001)                 9.611687812379854E-01
(PID.TID 0000.0001)     ;
(PID.TID 0000.0001) -----------------------------------------------------
(PID.TID 0000.0001)  DIAGNOSTICS_READPARMS: active diagnostics summary:
(PID.TID 0000.0001) -----------------------------------------------------
(PID.TID 0000.0001) Creating Output Stream: surfDiag
(PID.TID 0000.0001) Output Frequency:     172800.000000 ; Phase:           0.000000
(PID.TID 0000.0001)  Averaging Freq.:     172800.000000 , Phase:           0.000000 , Cycle:   1
(PID.TID 0000.0001)  missing value: -9.990000000000E+02
(PID.TID 0000.0001)  Levels:       1.
(PID.TID 0000.0001)  Fields:    ETAN     ETANSQ   DETADT2  PHIBOT   PHIBOTSQ DICTFLX  DICOFLX  DICCFLX  DICPCO2  DICPHAV
(PID.TID 0000.0001) -----------------------------------------------------
(PID.TID 0000.0001)  DIAGNOSTICS_READPARMS: statistics diags. summary:
(PID.TID 0000.0001) -----------------------------------------------------
(PID.TID 0000.0001) 
(PID.TID 0000.0001) SET_PARMS: done
(PID.TID 0000.0001) Enter INI_VERTICAL_GRID: setInterFDr=    T ; setCenterDr=    F
(PID.TID 0000.0001) %MON XC_max                       =   3.5859375000000E+02
(PID.TID 0000.0001) %MON XC_min                       =   1.4062500000000E+00
(PID.TID 0000.0001) %MON XC_mean                      =   1.8000000000000E+02
(PID.TID 0000.0001) %MON XC_sd                        =   1.0391987692599E+02
(PID.TID 0000.0001) %MON XG_max                       =   3.5718750000000E+02
(PID.TID 0000.0001) %MON XG_min                       =   0.0000000000000E+00
(PID.TID 0000.0001) %MON XG_mean                      =   1.7859375000000E+02
(PID.TID 0000.0001) %MON XG_sd                        =   1.0391987692599E+02
(PID.TID 0000.0001) %MON DXC_max                      =   3.1259246843155E+05
(PID.TID 0000.0001) %MON DXC_min                      =   7.6737143816223E+03
(PID.TID 0000.0001) %MON DXC_mean                     =   1.9908248704234E+05
(PID.TID 0000.0001) %MON DXC_sd                       =   9.6190602240067E+04
(PID.TID 0000.0001) %MON DXF_max                      =   3.1259246843155E+05
(PID.TID 0000.0001) %MON DXF_min                      =   7.6737143816223E+03
(PID.TID 0000.0001) %MON DXF_mean                     =   1.9908248704234E+05
(PID.TID 0000.0001) %MON DXF_sd                       =   9.6190602240067E+04
(PID.TID 0000.0001) %MON DXG_max                      =   3.1268664380261E+05
(PID.TID 0000.0001) %MON DXG_min                      =   0.0000000000000E+00
(PID.TID 0000.0001) %MON DXG_mean                     =   1.9902252711933E+05
(PID.TID 0000.0001) %MON DXG_sd                       =   9.6314600686012E+04
(PID.TID 0000.0001) %MON DXV_max                      =   3.1268664380261E+05
(PID.TID 0000.0001) %MON DXV_min                      =   0.0000000000000E+00
(PID.TID 0000.0001) %MON DXV_mean                     =   1.9902252711933E+05
(PID.TID 0000.0001) %MON DXV_sd                       =   9.6314600686012E+04
(PID.TID 0000.0001) %MON YC_max                       =   8.8593750000000E+01
(PID.TID 0000.0001) %MON YC_min                       =  -8.8593750000000E+01
(PID.TID 0000.0001) %MON YC_mean                      =   0.0000000000000E+00
(PID.TID 0000.0001) %MON YC_sd                        =   5.1955180880375E+01
(PID.TID 0000.0001) %MON YG_max                       =   8.7187500000000E+01
(PID.TID 0000.0001) %MON YG_min                       =  -9.0000000000000E+01
(PID.TID 0000.0001) %MON YG_mean                      =  -1.4062500000000E+00
(PID.TID 0000.0001) %MON YG_sd                        =   5.1955180880375E+01
(PID.TID 0000.0001) %MON DYC_max                      =   3.1268664380261E+05
(PID.TID 0000.0001) %MON DYC_min                      =   3.1268664380261E+05
(PID.TID 0000.0001) %MON DYC_mean                     =   3.1268664380260E+05
(PID.TID 0000.0001) %MON DYC_sd                       =   4.3655745685101E-09
(PID.TID 0000.0001) %MON DYF_max                      =   3.1268664380261E+05
(PID.TID 0000.0001) %MON DYF_min                      =   3.1268664380261E+05
(PID.TID 0000.0001) %MON DYF_mean                     =   3.1268664380260E+05
(PID.TID 0000.0001) %MON DYF_sd                       =   4.3655745685101E-09
(PID.TID 0000.0001) %MON DYG_max                      =   3.1268664380261E+05
(PID.TID 0000.0001) %MON DYG_min                      =   3.1268664380261E+05
(PID.TID 0000.0001) %MON DYG_mean                     =   3.1268664380260E+05
(PID.TID 0000.0001) %MON DYG_sd                       =   4.3655745685101E-09
(PID.TID 0000.0001) %MON DYU_max                      =   3.1268664380261E+05
(PID.TID 0000.0001) %MON DYU_min                      =   3.1268664380261E+05
(PID.TID 0000.0001) %MON DYU_mean                     =   3.1268664380260E+05
(PID.TID 0000.0001) %MON DYU_sd                       =   4.3655745685101E-09
(PID.TID 0000.0001) %MON RA_max                       =   9.7733676797555E+10
(PID.TID 0000.0001) %MON RA_min                       =   2.3992270990190E+09
(PID.TID 0000.0001) %MON RA_mean                      =   6.2244185031956E+10
(PID.TID 0000.0001) %MON RA_sd                        =   3.0074496923945E+10
(PID.TID 0000.0001) %MON RAW_max                      =   9.7733676797555E+10
(PID.TID 0000.0001) %MON RAW_min                      =   2.3992270990190E+09
(PID.TID 0000.0001) %MON RAW_mean                     =   6.2244185031956E+10
(PID.TID 0000.0001) %MON RAW_sd                       =   3.0074496923945E+10
(PID.TID 0000.0001) %MON RAS_max                      =   9.7763121221868E+10
(PID.TID 0000.0001) %MON RAS_min                      =   0.0000000000000E+00
(PID.TID 0000.0001) %MON RAS_mean                     =   6.2225438247155E+10
(PID.TID 0000.0001) %MON RAS_sd                       =   3.0113265689232E+10
(PID.TID 0000.0001) %MON RAZ_max                      =   9.7763121221868E+10
(PID.TID 0000.0001) %MON RAZ_min                      =   0.0000000000000E+00
(PID.TID 0000.0001) %MON RAZ_mean                     =   6.2225438247155E+10
(PID.TID 0000.0001) %MON RAZ_sd                       =   3.0113265689232E+10
(PID.TID 0000.0001) %MON AngleCS_max                  =   1.0000000000000E+00
(PID.TID 0000.0001) %MON AngleCS_min                  =   1.0000000000000E+00
(PID.TID 0000.0001) %MON AngleCS_mean                 =   1.0000000000000E+00
(PID.TID 0000.0001) %MON AngleCS_sd                   =   0.0000000000000E+00
(PID.TID 0000.0001) %MON AngleSN_max                  =   0.0000000000000E+00
(PID.TID 0000.0001) %MON AngleSN_min                  =   0.0000000000000E+00
(PID.TID 0000.0001) %MON AngleSN_mean                 =   0.0000000000000E+00
(PID.TID 0000.0001) %MON AngleSN_sd                   =   0.0000000000000E+00
(PID.TID 0000.0001)  MDS_READ_FIELD: opening global file: bathy.bin
(PID.TID 0000.0001) // =======================================================
(PID.TID 0000.0001) // Field Model R_low (ini_masks_etc)
(PID.TID 0000.0001) // CMIN =         -5.200000000000000E+03
(PID.TID 0000.0001) // CMAX =         -5.000000000000000E+01
(PID.TID 0000.0001) // CINT =          1.907407407407407E+02
(PID.TID 0000.0001) // SYMBOLS (CMIN->CMAX): -abcdefghijklmnopqrstuvwxyz+
(PID.TID 0000.0001) //                  0.0: .
(PID.TID 0000.0001) // RANGE I (Lo:Hi:Step):(    -3:   132:     1)
(PID.TID 0000.0001) // RANGE J (Lo:Hi:Step):(    68:    -3:    -1)
(PID.TID 0000.0001) // RANGE K (Lo:Hi:Step):(   1:   1:   1)
(PID.TID 0000.0001) // =======================================================
(PID.TID 0000.0001) K =   1
(PID.TID 0000.0001) //                I=6       I=16      I=26      I=36      I=46      I=56      I=66      I=68      I=78      I=88      I=98      I=108     I=118     I=128
(PID.TID 0000.0001) // |--J--|321012345|789012345|789012345|789012345|789012345|789012345|789012345|781234567|901234567|901234567|901234567|901234567|901234567|901234567|9012
(PID.TID 0000.0001) //     68 ................................................................................................................................................
(PID.TID 0000.0001) //     67 ................................................................................................................................................
(PID.TID 0000.0001) //     66 ................................................................................................................................................
(PID.TID 0000.0001) //     65 ................................................................................................................................................
(PID.TID 0000.0001) //     64 ................................................................................................................................................
(PID.TID 0000.0001) //     63 ................................................................................................................................................
(PID.TID 0000.0001) //     62 ................................................................................................................................................
(PID.TID 0000.0001) //     61 +zsnovwy++...+zzzzzz++++...............................................................................................................++zsnovwy
(PID.TID 0000.0001) //     60 +zrmmnot.....+zzzzzzzzz+.........................................................................................y....................zz+zrmmnot
(PID.TID 0000.0001) //     59 omjjklnoqyz++zyzzzzzzzz.........................................................................................yxwvvyy..............zzromjjklno
(PID.TID 0000.0001) //     58 sponmlmoqwzyzzzzzzzz++.............................................................................................wrtxz............zytssponmlmo
(PID.TID 0000.0001) //     57 rqmmmkmmz............................................................................................................tvz............xwurrqmmmkmm
(PID.TID 0000.0001) //     56 vqjmmuyz..............................................................................................................yx........yyyyy..zvqjmmuyz
(PID.TID 0000.0001) //     55 xwrrux..............................................................++......++.......................................+yuu.....wonrwyzzzyxwrrux..
(PID.TID 0000.0001) //     54 wyz++............................................................ymnz+++.ymnz+++......................................wmkkr..qmmotsqooruwyz++...
(PID.TID 0000.0001) //     53 v...++.................................................zzzz...omsjjjjm++sjjjjm+++.....zjghl...........................zojjjlkkloronmpvxtv...++..
(PID.TID 0000.0001) //     52 ....++................................................+xxyy...ggijjljjmpijjljjmpz.++tdeffhjm............................zmjiijlqnljlqtpo....++..
(PID.TID 0000.0001) //     51 .......................................................xvvx..ddfdhjsqmpqdhjsqmpqdbcddddefghjlz..........................zylgghhikkjhigqy........
(PID.TID 0000.0001) //     50 z+.....................................................+uutw---aaaa-----aaa------aaaabddefghjnq..........................zvogdefglkgfddpz+......
(PID.TID 0000.0001) //     49 dg+....................................................roqja--------------------------abddefhmmx..........................+whddehlnjdddddg+.....
(PID.TID 0000.0001) //     48 oxy.....................................................va------a-------a--------------addefgjlx.....................++nj+wfddfgjnmkgeddoxy.....
(PID.TID 0000.0001) //     47 t......................................................a------a----------------------aaaddefgiks...................+qfbaaahebddgoqnhfa--t.......
(PID.TID 0000.0001) //     46 v.....................................................z------d--a-d-----a-d----------------abddg..................lfdda-----bdhksrqhdacev.......
(PID.TID 0000.0001) //     45 g.....................................................b-----fb---cdhfe---cdhfe-------------aadddk................oeaaddb-abcehlnmkgcabjdg.......
(PID.TID 0000.0001) //     44 .................................................+.vgs-----ci----aaa-----aaa--------------bddddefu..............xf--ddb---adhlkihjd-bfgi........
(PID.TID 0000.0001) //     43 ................................................+ywfdng-------------a-a-----a-a--------abddddddefhr............+vd--ab----afkjgccda-deju........
(PID.TID 0000.0001) //     42 ...............................................+zveddhna-------------dde-----ddedbba----addddddeffh............+vd-------acgifaa-aaadis.........
(PID.TID 0000.0001) //     41 .........................op.....................qdeeddn---a--a--------dd------ddheddea---abddddeefgizw.......t+++n-------adifd-----dem..........
(PID.TID 0000.0001) //     40 .........................ljn.................zom----ddil---aac---fkic-df-fkic-dfdddgja------ddddegghjl.......tmv.uq------adifa--bbadfs..........
(PID.TID 0000.0001) //     39 ........................zhijj.....ppq.......rjmxa---bdfiea----acaigefghfaigefghf---cda-------adefggijjl......jkrvt.vnu--adejfa-aadehjm..........
(PID.TID 0000.0001) //     38 .......................nhggghr...llmn+.....vngt.g--aadfib---------ea---a--ea---aa---------bbbaddefggjhkjiv.....wphiggrna-agifaa---cljn..........
(PID.TID 0000.0001) //     37 ....................wttlheefes..+jjkmu+....oggx.x---adig-----addd-------d----------------bbbdddddeefghjkiggh...ojizsjssjbadfhca----bdj..........
(PID.TID 0000.0001) //     36 ......................qghfdddpq.+hiipoz....rrt...--adiige----gdefd-----cfd-----caebb-dd--abbdddddeeghikjhghhjy.vt......mgddddhfbaa-adh..........
(PID.TID 0000.0001) //     35 ......................adgieddkos+gghksy....tt....--gdimmnheeddcdfd---a--fd---a--ackfbaabddddddddefffgghkjihhjqt.........+sfeddfhgfefhdd+........
(PID.TID 0000.0001) //     34 l+owgp+..............laddfiighojeefght........wjlldfdelfedhkigddddd--a--ddd--a---aehdddddddddddddeeggghjjjjlqolm..........zjfedgkhfegdddl+owgp+.
(PID.TID 0000.0001) //     33 caaddgn.............jcadddfkggoedddged.........zxxifefkeddhnmgddddd-----ddd-------afddeddddddddddefgghijjkmqomkv...........zfeefkkhhddcccaaddgn.
(PID.TID 0000.0001) //     32 fdaddfl............kdbadddeiigjddddfddd.........yy..zomsrqjqpjdefeda----feda-----aaadddddddddddddeeefghjjjjkqnr..............kjfeffddfgifdaddfl.
(PID.TID 0000.0001) //     31 heddddes..........vgdddsggfhiidaaddfdddd........xxv.....t.srroljiea-----iea------faaaadddddddddddeeefijiihhhiii................nea--adgkheddddes
(PID.TID 0000.0001) //     30 hdde--di..........rgdfehqiggjtaaaddfaaa-fx...zxxxxw++....mj.spjhdaad---adaad---adge-aaaadefddddddeefikiggggfffe................zd---adhlhdde--di
(PID.TID 0000.0001) //     29 heda--aey.........rigfffhyjjjlaaadddaaaa-ailnmxxxx++++.+..qoqqklfdddfffdfdddfffdfhka-acbddifdefgggfikjheeggfeddl...............vb---aehlheda--ae
(PID.TID 0000.0001) //     36 ......................qghfdddpq.+hiipoz....rrt...--adiige----gdefd-----cfd-----caebb-dd--abbdddddeeghikjhghhjy.vt......mgddddhfbaa-adh..........
(PID.TID 0000.0001) //     35 ......................adgieddkos+gghksy....tt....--gdimmnheeddcdfd---a--fd---a--ackfbaabddddddddefffgghkjihhjqt.........+sfeddfhgfefhdd+........
(PID.TID 0000.0001) //     34 l+owgp+..............laddfiighojeefght........wjlldfdelfedhkigddddd--a--ddd--a---aehdddddddddddddeeggghjjjjlqolm..........zjfedgkhfegdddl+owgp+.
(PID.TID 0000.0001) //     33 caaddgn.............jcadddfkggoedddged.........zxxifefkeddhnmgddddd-----ddd-------afddeddddddddddefgghijjkmqomkv...........zfeefkkhhddcccaaddgn.
(PID.TID 0000.0001) //     32 fdaddfl............kdbadddeiigjddddfddd.........yy..zomsrqjqpjdefeda----feda-----aaadddddddddddddeeefghjjjjkqnr..............kjfeffddfgifdaddfl.
(PID.TID 0000.0001) //     31 heddddes..........vgdddsggfhiidaaddfdddd........xxv.....t.srroljiea-----iea------faaaadddddddddddeeefijiihhhiii................nea--adgkheddddes
(PID.TID 0000.0001) //     30 hdde--di..........rgdfehqiggjtaaaddfaaa-fx...zxxxxw++....mj.spjhdaad---adaad---adge-aaaadefddddddeefikiggggfffe................zd---adhlhdde--di
(PID.TID 0000.0001) //     29 heda--aey.........rigfffhyjjjlaaadddaaaa-ailnmxxxx++++.+..qoqqklfdddfffdfdddfffdfhka-acbddifdefgggfikjheeggfeddl...............vb---aehlheda--ae
(PID.TID 0000.0001) //     28 hfd---afy.........+kj.ddfojkhfa-addg--d-c-ddd-jx++.....rjggpmigqkllopidckllopidc-dlaaadddeffffggghijkigefghgfddd..............+ec---ddjjhfd---af
(PID.TID 0000.0001) //     27 heda--ag..........zm..edfxikiddaaafla-a----dedr+........vvgklgftkllpqqkckllpqqkc--dddefornkfffgghhjkjhgfhhgeddddi.............rdda--dfjkheda--ag
(PID.TID 0000.0001) //     26 heda---h..........r+..ddjiimieddaadl-a-----dsw+..........yqnlkkjnlnvsqibnlnvsqib--ddddiffkkjgfghhhjkjhgfeefedddgfd............+fdb--afilheda---h
(PID.TID 0000.0001) //     25 jdd--bkn.........mmz.ndfffimlfddddejda---abfw.............zpvsrsnlljrs--nlljrs---addddddedggggghhijkiggfffffeeggdde...........nfea--adfljdd--bkn
(PID.TID 0000.0001) //     24 fd---gngu.......zkjx.fddddegkiffdddjd---aajm..............zppsotngdhsp--ngdhsp----bdddddddefhihijjljjhghggggghjedff..........pheb---ddgkfd---gng
(PID.TID 0000.0001) //     23 fedackddm.......tfejsd---degikiffeefdccfba-m..............+gmtmomidiqi--midiqi-----dddddifeefgghijklmkkjiiihihgffff........zoledcaabdfhkfedackdd
(PID.TID 0000.0001) //     22 heddhaadjz.....uqbcnnfabdfddffjifffolnljda--+.............zdntmnmngiq---mngiq------ddddddeeeeefghijlmkjihhhihggfeev........ohgfqihdddfilheddhaad
(PID.TID 0000.0001) //     21 fefgebabgq.....jpabrofdfiddddfilihjleeonb-abn....++.......sdluotmqjll---mqjll------dddddddddeffghhikmjjihhhihggfef+.......shgfflgiddfhkkfefgebab
(PID.TID 0000.0001) //     20 gggdb--addw.zgegi-allghkdddddegllhhgfeddc--kl+vhddnw......dccotrr.tnd--ar.tnd--aa--------ddddffffhhjmjiiiiihgggfff.......xfbbbdddffggjkjgggdb--a
(PID.TID 0000.0001) //     19 jjfda--addddgkefdadkknkfd-adeegnkihhhgfddddddda------v...kddadsvv..via-bv..via-bb--d------abddddeegjmjgfgijihggffp......zfa-aaaddddfgklljjfda--a
(PID.TID 0000.0001) //     18 hgddca-dddaagndddflnkjheb-adefglllllkjhfeeddddba-----df..gddbdfux..olifdx..olifdba-ddd------adddeehkmihfefijihgggy......h------abddfhkljhgddca-d
(PID.TID 0000.0001) //     17 ggffdddddaabca-dgnomnmjfcbddfgikkklklljhgggedddddddddddn+jddbddr..yxxxqk..yxxxqk--addd------adddfghkljigeeefgikii+...++p---aaa--adddgjkjggffdddd
(PID.TID 0000.0001) //     16 lifeddfedccb--aglnpqpnmgddfpunjjjjjjjklkjihgffeddddeefdjqgdcbde..tsojdaa.tsojdaa-aadddbaaaaadddefgjlljhgeeeeffhjk....++j---------addfgkllifeddfe
(PID.TID 0000.0001) //     15 lljhgghgdcddb-dfdefffffedeou.xnmjjgghijjjkkjjhgggghikjgggldddekzxxvvga--xxvvga--aaaabcddddddddeghiklkihfedddddefi....+zsqmb-afaaabddffhjlljhgghg
(PID.TID 0000.0001) //     14 jnonnkhikkjjhfc-bfmlhfeedddglxytmjdefhhhhhiihgfedghikljifeddfhjxyydba--ayydba--aaabcdddefhfddefhjmljhhfedddddddfgj..+zzsqpnnqjigifffdefhjnonnkhi
(PID.TID 0000.0001) //     13 ijnomnlgddfeeb---gjfeddddddhgmsrjgddeefgggggedddddefgjlmghgfjgkusaa---aasaa---aabcddghiiijmljihimljhhgeddddaadddfjlllkjihggjkmwvjddfddefijnomnlg
(PID.TID 0000.0001) //     12 fhifec----bb------------abddlnnrsiddddeedddddddddddddfhjkkiijfd----aaddc---aaddccdegijlnkihjihggggdddddccdddddddddfihggggggkkjkkjjodddeffhifec--
(PID.TID 0000.0001) //     11 a----------a-----------abbdddgmmqsjeeededddeddeddddddeeghkllnkjecacddeffcacddeffgggikmlkihgeddedbaddaaaaaaaaabbbddeghhgilolvxomnllkefgdaa-------
(PID.TID 0000.0001) //     10 ----dcaa-aaaaaaaabbdebcbddfghhjjmmjjjkprohiijkhhgggghhhggjjlommnnmijijklnmijijklnmmllkjggeddddaaaaaaaddaaabdddddefgill..zqjkigddddddbaa-----dcaa
(PID.TID 0000.0001) //      9 adddkhefjfdddddhfdekpy..xpnnpponxxyzz........zyz+y...zzxxwsmmmmmkjjjmmmkkjjjmmmkkhgggfdeeeddddddddddddddddddddeeghpy...yxnhgedddddddbaaaadddkhef
(PID.TID 0000.0001) //      8 gnlmkmopvtlkklv..............yx.............................zrppmljjjgffmljjjgfffggeeddddddddefhhigghffeddffilloxy....zyxoihgggdddddddddgnlmkmop
(PID.TID 0000.0001) //      7 .................................................................xsrvshf.xsrvshfeeeeeeeeeeffgjmmnpvwvvwy++yyyyxxz......ywttqmigghggfflyz........
(PID.TID 0000.0001) //      6 ...............................................................yyyyyyupnyyyyyupnkihhggghvyyy+.........................+yyyyyyyyxxxyy............
(PID.TID 0000.0001) //      5 ................................................................xxyyxxyyxxyyxxyyyyyzz.................................++zz..zyxy................
(PID.TID 0000.0001) //      4 ................................................................................................................................................
(PID.TID 0000.0001) //      3 ................................................................................................................................................
(PID.TID 0000.0001) //      2 ................................................................................................................................................
(PID.TID 0000.0001) //      1 ................................................................................................................................................
(PID.TID 0000.0001) //      0 ................................................................................................................................................
(PID.TID 0000.0001) //     -1 ................................................................................................................................................
(PID.TID 0000.0001) //     -2 ................................................................................................................................................
(PID.TID 0000.0001) //     -3 ................................................................................................................................................
(PID.TID 0000.0001) // =======================================================
(PID.TID 0000.0001) // END OF FIELD                                          =
(PID.TID 0000.0001) // =======================================================
(PID.TID 0000.0001) 
(PID.TID 0000.0001) // =======================================================
(PID.TID 0000.0001) // Field Model Ro_surf (ini_masks_etc)
(PID.TID 0000.0001) // CMIN =          1.000000000000000E+32
(PID.TID 0000.0001) // CMAX =         -1.000000000000000E+32
(PID.TID 0000.0001) // CINT =          0.000000000000000E+00
(PID.TID 0000.0001) // SYMBOLS (CMIN->CMAX): -abcdefghijklmnopqrstuvwxyz+
(PID.TID 0000.0001) //                  0.0: .
(PID.TID 0000.0001) // RANGE I (Lo:Hi:Step):(    -3:   132:     1)
(PID.TID 0000.0001) // RANGE J (Lo:Hi:Step):(    68:    -3:    -1)
(PID.TID 0000.0001) // RANGE K (Lo:Hi:Step):(   1:   1:   1)
(PID.TID 0000.0001) // =======================================================
(PID.TID 0000.0001) // =======================================================
(PID.TID 0000.0001) // END OF FIELD                                          =
(PID.TID 0000.0001) // =======================================================
(PID.TID 0000.0001) 
(PID.TID 0000.0001) // =======================================================
(PID.TID 0000.0001) // Field hFacC at iteration          0
(PID.TID 0000.0001) // CMIN =          1.000000000000000E+00
(PID.TID 0000.0001) // CMAX =          1.000000000000000E+00
(PID.TID 0000.0001) // CINT =          0.000000000000000E+00
(PID.TID 0000.0001) // SYMBOLS (CMIN->CMAX): -abcdefghijklmnopqrstuvwxyz+
(PID.TID 0000.0001) //                  0.0: .
(PID.TID 0000.0001) // RANGE I (Lo:Hi:Step):(    -3:   132:     1)
(PID.TID 0000.0001) // RANGE J (Lo:Hi:Step):(    68:    -3:    -1)
(PID.TID 0000.0001) // RANGE K (Lo:Hi:Step):(   1:   1:   1)
(PID.TID 0000.0001) // =======================================================
(PID.TID 0000.0001) // =======================================================
(PID.TID 0000.0001) // END OF FIELD                                          =
(PID.TID 0000.0001) // =======================================================
(PID.TID 0000.0001) 
(PID.TID 0000.0001) // =======================================================
(PID.TID 0000.0001) // Field hFacW at iteration          0
(PID.TID 0000.0001) // CMIN =          1.000000000000000E+00
(PID.TID 0000.0001) // CMAX =          1.000000000000000E+00
(PID.TID 0000.0001) // CINT =          0.000000000000000E+00
(PID.TID 0000.0001) // SYMBOLS (CMIN->CMAX): -abcdefghijklmnopqrstuvwxyz+
(PID.TID 0000.0001) //                  0.0: .
(PID.TID 0000.0001) // RANGE I (Lo:Hi:Step):(    -3:   132:     1)
(PID.TID 0000.0001) // RANGE J (Lo:Hi:Step):(    68:    -3:    -1)
(PID.TID 0000.0001) // RANGE K (Lo:Hi:Step):(   1:   1:   1)
(PID.TID 0000.0001) // =======================================================
(PID.TID 0000.0001) // =======================================================
(PID.TID 0000.0001) // END OF FIELD                                          =
(PID.TID 0000.0001) // =======================================================
(PID.TID 0000.0001) 
(PID.TID 0000.0001) // =======================================================
(PID.TID 0000.0001) // Field hFacS at iteration          0
(PID.TID 0000.0001) // CMIN =          1.000000000000000E+00
(PID.TID 0000.0001) // CMAX =          1.000000000000000E+00
(PID.TID 0000.0001) // CINT =          0.000000000000000E+00
(PID.TID 0000.0001) // SYMBOLS (CMIN->CMAX): -abcdefghijklmnopqrstuvwxyz+
(PID.TID 0000.0001) //                  0.0: .
(PID.TID 0000.0001) // RANGE I (Lo:Hi:Step):(    -3:   132:     1)
(PID.TID 0000.0001) // RANGE J (Lo:Hi:Step):(    68:    -3:    -1)
(PID.TID 0000.0001) // RANGE K (Lo:Hi:Step):(   1:   1:   1)
(PID.TID 0000.0001) // =======================================================
(PID.TID 0000.0001) // =======================================================
(PID.TID 0000.0001) // END OF FIELD                                          =
(PID.TID 0000.0001) // =======================================================
(PID.TID 0000.0001) 
(PID.TID 0000.0001) GAD_INIT_FIXED: GAD_OlMinSize=  1  0  1
(PID.TID 0000.0001) 
(PID.TID 0000.0001) // ===================================
(PID.TID 0000.0001) // GAD parameters :
(PID.TID 0000.0001) // ===================================
(PID.TID 0000.0001) tempAdvScheme =   /* Temp. Horiz.Advection scheme selector */
(PID.TID 0000.0001)                       2
(PID.TID 0000.0001)     ;
(PID.TID 0000.0001) tempVertAdvScheme =   /* Temp. Vert. Advection scheme selector */
(PID.TID 0000.0001)                       2
(PID.TID 0000.0001)     ;
(PID.TID 0000.0001) tempMultiDimAdvec =   /* use Muti-Dim Advec method for Temp */
(PID.TID 0000.0001)                   F
(PID.TID 0000.0001)     ;
(PID.TID 0000.0001) tempSOM_Advection = /* use 2nd Order Moment Advection for Temp */
(PID.TID 0000.0001)                   F
(PID.TID 0000.0001)     ;
(PID.TID 0000.0001) AdamsBashforthGt = /* apply Adams-Bashforth extrapolation on Gt */
(PID.TID 0000.0001)                   T
(PID.TID 0000.0001)     ;
(PID.TID 0000.0001) AdamsBashforth_T = /* apply Adams-Bashforth extrapolation on Temp */
(PID.TID 0000.0001)                   F
(PID.TID 0000.0001)     ;
(PID.TID 0000.0001) saltAdvScheme =   /* Salt. Horiz.advection scheme selector */
(PID.TID 0000.0001)                       2
(PID.TID 0000.0001)     ;
(PID.TID 0000.0001) saltVertAdvScheme =   /* Salt. Vert. Advection scheme selector */
(PID.TID 0000.0001)                       2
(PID.TID 0000.0001)     ;
(PID.TID 0000.0001) saltMultiDimAdvec =   /* use Muti-Dim Advec method for Salt */
(PID.TID 0000.0001)                   F
(PID.TID 0000.0001)     ;
(PID.TID 0000.0001) saltSOM_Advection = /* use 2nd Order Moment Advection for Salt */
(PID.TID 0000.0001)                   F
(PID.TID 0000.0001)     ;
(PID.TID 0000.0001) AdamsBashforthGs = /* apply Adams-Bashforth extrapolation on Gs */
(PID.TID 0000.0001)                   T
(PID.TID 0000.0001)     ;
(PID.TID 0000.0001) AdamsBashforth_S = /* apply Adams-Bashforth extrapolation on Salt */
(PID.TID 0000.0001)                   F
(PID.TID 0000.0001)     ;
(PID.TID 0000.0001) // ===================================
(PID.TID 0000.0001) PTRACERS_INIT_FIXED: updated GAD_OlMinSize=  2  0  1
 QQ load dic parameters, initial fixed
(PID.TID 0000.0001) 
(PID.TID 0000.0001) // ===================================
(PID.TID 0000.0001) //  DIC_INIT_FIXED parameters :
(PID.TID 0000.0001) nlev = /* Number of level over which Bio act is computed */
(PID.TID 0000.0001)                       6
(PID.TID 0000.0001)     ;
(PID.TID 0000.0001) ------------------------------------------------------------
(PID.TID 0000.0001) DIAGNOSTICS_SET_LEVELS: done
(PID.TID 0000.0001)  Total Nb of available Diagnostics: ndiagt=   287
(PID.TID 0000.0001)  write list of available Diagnostics to file: available_diagnostics.log
(PID.TID 0000.0001) SETDIAG: Allocate  1 x  1 Levels for Diagnostic #    23 ETAN
(PID.TID 0000.0001) SETDIAG: Allocate  1 x  1 Levels for Diagnostic #    24 ETANSQ
(PID.TID 0000.0001) SETDIAG: Allocate  1 x  1 Levels for Diagnostic #    25 DETADT2
(PID.TID 0000.0001) SETDIAG: Allocate  1 x  1 Levels for Diagnostic #    73 PHIBOT
(PID.TID 0000.0001) SETDIAG: Allocate  1 x  1 Levels for Diagnostic #    74 PHIBOTSQ
(PID.TID 0000.0001) SETDIAG: Allocate  1 x  1 Levels for Diagnostic #   278 DICTFLX
(PID.TID 0000.0001) SETDIAG: Allocate  1 x  1 Levels for Diagnostic #   279 DICOFLX
(PID.TID 0000.0001) SETDIAG: Allocate  1 x  1 Levels for Diagnostic #   280 DICCFLX
(PID.TID 0000.0001) SETDIAG: Allocate  1 x  1 Levels for Diagnostic #   281 DICPCO2
(PID.TID 0000.0001) SETDIAG: Allocate  1 x  1 Levels for Diagnostic #   282 DICPHAV
(PID.TID 0000.0001)   space allocated for all diagnostics:      10 levels
(PID.TID 0000.0001) DIAGNOSTICS_SET_POINTERS: done
(PID.TID 0000.0001) ------------------------------------------------------------
(PID.TID 0000.0001) DIAGSTATS_SET_REGIONS: define   0 regions:
(PID.TID 0000.0001) ------------------------------------------------------------
(PID.TID 0000.0001)   space allocated for all stats-diags:       0 levels
(PID.TID 0000.0001) DIAGSTATS_SET_POINTERS: done
(PID.TID 0000.0001) ------------------------------------------------------------
(PID.TID 0000.0001) %MON fCori_max                    =   1.4579854531444E-04
(PID.TID 0000.0001) %MON fCori_min                    =  -1.4579854531444E-04
(PID.TID 0000.0001) %MON fCori_mean                   =   2.3039296165317E-19
(PID.TID 0000.0001) %MON fCori_sd                     =   1.0312619976228E-04
(PID.TID 0000.0001) %MON fCoriG_max                   =   1.4566679669714E-04
(PID.TID 0000.0001) %MON fCoriG_min                   =  -1.4584247033981E-04
(PID.TID 0000.0001) %MON fCoriG_mean                  =  -2.2787885990593E-06
(PID.TID 0000.0001) %MON fCoriG_sd                    =   1.0310101939326E-04
(PID.TID 0000.0001) %MON fCoriCos_max                 =   1.4579854531444E-04
(PID.TID 0000.0001) %MON fCoriCos_min                 =   3.5791533929553E-06
(PID.TID 0000.0001) %MON fCoriCos_mean                =   9.2855522572229E-05
(PID.TID 0000.0001) %MON fCoriCos_sd                  =   4.4864964117307E-05
(PID.TID 0000.0001) INI_CG2D: CG2D normalisation factor =  7.0372759228205380E-05
(PID.TID 0000.0001) 
(PID.TID 0000.0001) // =======================================================
(PID.TID 0000.0001) // Model configuration
(PID.TID 0000.0001) // =======================================================
(PID.TID 0000.0001) //
(PID.TID 0000.0001) // "Physical" paramters ( PARM01 in namelist )
(PID.TID 0000.0001) //
(PID.TID 0000.0001) buoyancyRelation = /* Type of relation to get Buoyancy */
(PID.TID 0000.0001)               'OCEANIC'
(PID.TID 0000.0001)     ;
(PID.TID 0000.0001) fluidIsAir   =  /* fluid major constituent is Air */
(PID.TID 0000.0001)                   F
(PID.TID 0000.0001)     ;
(PID.TID 0000.0001) fluidIsWater =  /* fluid major constituent is Water */
(PID.TID 0000.0001)                   T
(PID.TID 0000.0001)     ;
(PID.TID 0000.0001) usingPCoords =  /* use p (or p*) vertical coordinate */
(PID.TID 0000.0001)                   F
(PID.TID 0000.0001)     ;
(PID.TID 0000.0001) usingZCoords =  /* use z (or z*) vertical coordinate */
(PID.TID 0000.0001)                   T
(PID.TID 0000.0001)     ;
(PID.TID 0000.0001) tRef =   /* Reference temperature profile ( oC or K ) */
(PID.TID 0000.0001)    15 @  2.000000000000000E+01              /* K =  1: 15 */
(PID.TID 0000.0001)     ;
(PID.TID 0000.0001) sRef =   /* Reference salinity profile ( psu ) */
(PID.TID 0000.0001)    15 @  3.500000000000000E+01              /* K =  1: 15 */
(PID.TID 0000.0001)     ;
(PID.TID 0000.0001) useStrainTensionVisc= /* Use StrainTension Form of Viscous Operator */
(PID.TID 0000.0001)                   F
(PID.TID 0000.0001)     ;
(PID.TID 0000.0001) useVariableVisc = /* Use variable horizontal viscosity */
(PID.TID 0000.0001)                   F
(PID.TID 0000.0001)     ;
(PID.TID 0000.0001) useHarmonicVisc = /* Use harmonic horizontal viscosity */
(PID.TID 0000.0001)                   T
(PID.TID 0000.0001)     ;
(PID.TID 0000.0001) useBiharmonicVisc= /* Use biharmonic horiz.  viscosity */
(PID.TID 0000.0001)                   F
(PID.TID 0000.0001)     ;
(PID.TID 0000.0001) useSmag3D = /* Use isotropic 3-D Smagorinsky viscosity */
(PID.TID 0000.0001)                   F
(PID.TID 0000.0001)     ;
(PID.TID 0000.0001) viscAh  =   /* Lateral harmonic viscosity ( m^2/s ) */
(PID.TID 0000.0001)                 2.000000000000000E+05
(PID.TID 0000.0001)     ;
(PID.TID 0000.0001) viscA4  =   /* Lateral biharmonic viscosity ( m^4/s ) */
(PID.TID 0000.0001)                 0.000000000000000E+00
(PID.TID 0000.0001)     ;
(PID.TID 0000.0001) no_slip_sides =  /* Viscous BCs: No-slip sides */
(PID.TID 0000.0001)                   T
(PID.TID 0000.0001)     ;
(PID.TID 0000.0001) sideDragFactor = /* side-drag scaling factor (non-dim) */
(PID.TID 0000.0001)                 2.000000000000000E+00
(PID.TID 0000.0001)     ;
(PID.TID 0000.0001) viscArNr = /* vertical profile of vertical viscosity ( m^2/s )*/
(PID.TID 0000.0001)    15 @  1.000000000000000E-03              /* K =  1: 15 */
(PID.TID 0000.0001)     ;
(PID.TID 0000.0001) no_slip_bottom =  /* Viscous BCs: No-slip bottom */
(PID.TID 0000.0001)                   T
(PID.TID 0000.0001)     ;
(PID.TID 0000.0001) bottomVisc_pCell = /* Partial-cell in bottom Visc. BC */
(PID.TID 0000.0001)                   F
(PID.TID 0000.0001)     ;
(PID.TID 0000.0001) bottomDragLinear = /* linear bottom-drag coefficient ( m/s ) */
(PID.TID 0000.0001)                 0.000000000000000E+00
(PID.TID 0000.0001)     ;
(PID.TID 0000.0001) bottomDragQuadratic = /* quadratic bottom-drag coefficient (-) */
(PID.TID 0000.0001)                 0.000000000000000E+00
(PID.TID 0000.0001)     ;
(PID.TID 0000.0001) selectBotDragQuadr = /* select quadratic bottom drag options */
(PID.TID 0000.0001)                      -1
(PID.TID 0000.0001)     ;
(PID.TID 0000.0001) diffKhT =   /* Laplacian diffusion of heat laterally ( m^2/s ) */
(PID.TID 0000.0001)                 0.000000000000000E+00
(PID.TID 0000.0001)     ;
(PID.TID 0000.0001) diffK4T =   /* Biharmonic diffusion of heat laterally ( m^4/s ) */
(PID.TID 0000.0001)                 0.000000000000000E+00
(PID.TID 0000.0001)     ;
(PID.TID 0000.0001) diffKhS =   /* Laplacian diffusion of salt laterally ( m^2/s ) */
(PID.TID 0000.0001)                 0.000000000000000E+00
(PID.TID 0000.0001)     ;
(PID.TID 0000.0001) diffK4S =   /* Biharmonic diffusion of salt laterally ( m^4/s ) */
(PID.TID 0000.0001)                 0.000000000000000E+00
(PID.TID 0000.0001)     ;
(PID.TID 0000.0001) diffKrNrT = /* vertical profile of vertical diffusion of Temp ( m^2/s )*/
(PID.TID 0000.0001)    15 @  0.000000000000000E+00              /* K =  1: 15 */
(PID.TID 0000.0001)     ;
(PID.TID 0000.0001) diffKrNrS = /* vertical profile of vertical diffusion of Salt ( m^2/s )*/
(PID.TID 0000.0001)    15 @  0.000000000000000E+00              /* K =  1: 15 */
(PID.TID 0000.0001)     ;
(PID.TID 0000.0001) diffKrBL79surf = /* Surface diffusion for Bryan and Lewis 79 ( m^2/s ) */
(PID.TID 0000.0001)                 3.000000000000000E-05
(PID.TID 0000.0001)     ;
(PID.TID 0000.0001) diffKrBL79deep = /* Deep diffusion for Bryan and Lewis 1979 ( m^2/s ) */
(PID.TID 0000.0001)                 1.300000000000000E-04
(PID.TID 0000.0001)     ;
(PID.TID 0000.0001) diffKrBL79scl = /* Depth scale for Bryan and Lewis 1979 ( m ) */
(PID.TID 0000.0001)                 1.500000000000000E+02
(PID.TID 0000.0001)     ;
(PID.TID 0000.0001) diffKrBL79Ho = /* Turning depth for Bryan and Lewis 1979 ( m ) */
(PID.TID 0000.0001)                -2.000000000000000E+03
(PID.TID 0000.0001)     ;
(PID.TID 0000.0001) ivdc_kappa = /* Implicit Vertical Diffusivity for Convection ( m^2/s) */
(PID.TID 0000.0001)                 1.000000000000000E+02
(PID.TID 0000.0001)     ;
(PID.TID 0000.0001) hMixCriteria=  /* Criteria for mixed-layer diagnostic */
(PID.TID 0000.0001)                -8.000000000000000E-01
(PID.TID 0000.0001)     ;
(PID.TID 0000.0001) dRhoSmall =  /* Parameter for mixed-layer diagnostic */
(PID.TID 0000.0001)                 1.000000000000000E-06
(PID.TID 0000.0001)     ;
(PID.TID 0000.0001) hMixSmooth=  /* Smoothing parameter for mixed-layer diagnostic */
(PID.TID 0000.0001)                 0.000000000000000E+00
(PID.TID 0000.0001)     ;
(PID.TID 0000.0001) eosType =  /* Type of Equation of State */
(PID.TID 0000.0001)               'JMD95Z'
(PID.TID 0000.0001)     ;
(PID.TID 0000.0001) selectP_inEOS_Zc = /* select pressure to use in EOS (0,1,2,3) */
(PID.TID 0000.0001)                       0
(PID.TID 0000.0001)     0= -g*rhoConst*z ; 1= pRef (from tRef,sRef); 2= Hyd P ; 3= Hyd+NH P
(PID.TID 0000.0001)     ;
(PID.TID 0000.0001) HeatCapacity_Cp =  /* Specific heat capacity ( J/kg/K ) */
(PID.TID 0000.0001)                 3.994000000000000E+03
(PID.TID 0000.0001)     ;
(PID.TID 0000.0001) celsius2K = /* 0 degree Celsius converted to Kelvin ( K ) */
(PID.TID 0000.0001)                 2.731500000000000E+02
(PID.TID 0000.0001)     ;
(PID.TID 0000.0001) rhoConst  = /* Reference density (Boussinesq)  ( kg/m^3 ) */
(PID.TID 0000.0001)                 1.035000000000000E+03
(PID.TID 0000.0001)     ;
(PID.TID 0000.0001) rhoFacC = /* normalized Reference density @ cell-Center (-) */
(PID.TID 0000.0001)    15 @  1.000000000000000E+00              /* K =  1: 15 */
(PID.TID 0000.0001)     ;
(PID.TID 0000.0001) rhoFacF = /* normalized Reference density @ W-Interface (-) */
(PID.TID 0000.0001)    16 @  1.000000000000000E+00              /* K =  1: 16 */
(PID.TID 0000.0001)     ;
(PID.TID 0000.0001) rhoConstFresh = /* Fresh-water reference density ( kg/m^3 ) */
(PID.TID 0000.0001)                 1.000000000000000E+03
(PID.TID 0000.0001)     ;
(PID.TID 0000.0001) gravity =   /* Gravitational acceleration ( m/s^2 ) */
(PID.TID 0000.0001)                 9.810000000000000E+00
(PID.TID 0000.0001)     ;
(PID.TID 0000.0001) gBaro =   /* Barotropic gravity ( m/s^2 ) */
(PID.TID 0000.0001)                 9.810000000000000E+00
(PID.TID 0000.0001)     ;
(PID.TID 0000.0001) gravFacC = /* gravity factor (vs surf.) @ cell-Center (-) */
(PID.TID 0000.0001)    15 @  1.000000000000000E+00              /* K =  1: 15 */
(PID.TID 0000.0001)     ;
(PID.TID 0000.0001) gravFacF = /* gravity factor (vs surf.) @ W-Interface (-) */
(PID.TID 0000.0001)    16 @  1.000000000000000E+00              /* K =  1: 16 */
(PID.TID 0000.0001)     ;
(PID.TID 0000.0001) rotationPeriod =   /* Rotation Period ( s ) */
(PID.TID 0000.0001)                 8.616400000000000E+04
(PID.TID 0000.0001)     ;
(PID.TID 0000.0001) omega =   /* Angular velocity ( rad/s ) */
(PID.TID 0000.0001)                 7.292123516990375E-05
(PID.TID 0000.0001)     ;
(PID.TID 0000.0001) f0 =   /* Reference coriolis parameter ( 1/s ) */
(PID.TID 0000.0001)                 1.000000000000000E-04
(PID.TID 0000.0001)     ;
(PID.TID 0000.0001) beta =   /* Beta ( 1/(m.s) ) */
(PID.TID 0000.0001)                 9.999999999999999E-12
(PID.TID 0000.0001)     ;
(PID.TID 0000.0001) fPrime =   /* Second coriolis parameter ( 1/s ) */
(PID.TID 0000.0001)                 0.000000000000000E+00
(PID.TID 0000.0001)     ;
(PID.TID 0000.0001) rigidLid =   /* Rigid lid on/off flag */
(PID.TID 0000.0001)                   F
(PID.TID 0000.0001)     ;
(PID.TID 0000.0001) implicitFreeSurface =   /* Implicit free surface on/off flag */
(PID.TID 0000.0001)                   T
(PID.TID 0000.0001)     ;
(PID.TID 0000.0001) freeSurfFac =   /* Implicit free surface factor */
(PID.TID 0000.0001)                 1.000000000000000E+00
(PID.TID 0000.0001)     ;
(PID.TID 0000.0001) implicSurfPress =  /* Surface Pressure implicit factor (0-1)*/
(PID.TID 0000.0001)                 1.000000000000000E+00
(PID.TID 0000.0001)     ;
(PID.TID 0000.0001) implicDiv2DFlow =  /* Barot. Flow Div. implicit factor (0-1)*/
(PID.TID 0000.0001)                 1.000000000000000E+00
(PID.TID 0000.0001)     ;
(PID.TID 0000.0001) uniformLin_PhiSurf = /* use uniform Bo_surf on/off flag*/
(PID.TID 0000.0001)                   T
(PID.TID 0000.0001)     ;
(PID.TID 0000.0001) uniformFreeSurfLev = /* free-surface level-index is uniform */
(PID.TID 0000.0001)                   T
(PID.TID 0000.0001)     ;
(PID.TID 0000.0001) hFacMin =   /* minimum partial cell factor (hFac) */
(PID.TID 0000.0001)                 1.000000000000000E-01
(PID.TID 0000.0001)     ;
(PID.TID 0000.0001) hFacMinDr = /* minimum partial cell thickness ( m) */
(PID.TID 0000.0001)                 5.000000000000000E+01
(PID.TID 0000.0001)     ;
(PID.TID 0000.0001) exactConserv =  /* Exact Volume Conservation on/off flag*/
(PID.TID 0000.0001)                   F
(PID.TID 0000.0001)     ;
(PID.TID 0000.0001) linFSConserveTr = /* Tracer correction for Lin Free Surface on/off flag*/
(PID.TID 0000.0001)                   F
(PID.TID 0000.0001)     ;
(PID.TID 0000.0001) nonlinFreeSurf = /* Non-linear Free Surf. options (-1,0,1,2,3)*/
(PID.TID 0000.0001)                       0
(PID.TID 0000.0001)      -1,0= Off ; 1,2,3= On, 2=+rescale gU,gV, 3=+update cg2d solv.
(PID.TID 0000.0001)     ;
(PID.TID 0000.0001) hFacInf =   /* lower threshold for hFac (nonlinFreeSurf only)*/
(PID.TID 0000.0001)                 2.000000000000000E-01
(PID.TID 0000.0001)     ;
(PID.TID 0000.0001) hFacSup =   /* upper threshold for hFac (nonlinFreeSurf only)*/
(PID.TID 0000.0001)                 2.000000000000000E+00
(PID.TID 0000.0001)     ;
(PID.TID 0000.0001) select_rStar = /* r* Vertical coord. options (=0 r coord.; >0 uses r*)*/
(PID.TID 0000.0001)                       0
(PID.TID 0000.0001)     ;
(PID.TID 0000.0001) useRealFreshWaterFlux = /* Real Fresh Water Flux on/off flag*/
(PID.TID 0000.0001)                   F
(PID.TID 0000.0001)     ;
(PID.TID 0000.0001) temp_EvPrRn = /* Temp. of Evap/Prec/R (UNSET=use local T)(oC)*/
(PID.TID 0000.0001)                 1.234567000000000E+05
(PID.TID 0000.0001)     ;
(PID.TID 0000.0001) salt_EvPrRn = /* Salin. of Evap/Prec/R (UNSET=use local S)(psu)*/
(PID.TID 0000.0001)                 0.000000000000000E+00
(PID.TID 0000.0001)     ;
(PID.TID 0000.0001) selectAddFluid = /* option for mass source/sink of fluid (=0: off) */
(PID.TID 0000.0001)                       0
(PID.TID 0000.0001)     ;
(PID.TID 0000.0001) temp_addMass = /* Temp. of addMass array (UNSET=use local T)(oC)*/
(PID.TID 0000.0001)                 1.234567000000000E+05
(PID.TID 0000.0001)     ;
(PID.TID 0000.0001) salt_addMass = /* Salin. of addMass array (UNSET=use local S)(psu)*/
(PID.TID 0000.0001)                 0.000000000000000E+00
(PID.TID 0000.0001)     ;
(PID.TID 0000.0001) convertFW2Salt = /* convert F.W. Flux to Salt Flux (-1=use local S)(psu)*/
(PID.TID 0000.0001)                 3.500000000000000E+01
(PID.TID 0000.0001)     ;
(PID.TID 0000.0001) use3Dsolver = /* use 3-D pressure solver on/off flag */
(PID.TID 0000.0001)                   F
(PID.TID 0000.0001)     ;
(PID.TID 0000.0001) nonHydrostatic =  /* Non-Hydrostatic on/off flag */
(PID.TID 0000.0001)                   F
(PID.TID 0000.0001)     ;
(PID.TID 0000.0001) nh_Am2 = /* Non-Hydrostatic terms scaling factor */
(PID.TID 0000.0001)                 1.000000000000000E+00
(PID.TID 0000.0001)     ;
(PID.TID 0000.0001) implicitNHPress = /* Non-Hyd Pressure implicit factor (0-1)*/
(PID.TID 0000.0001)                 1.000000000000000E+00
(PID.TID 0000.0001)     ;
(PID.TID 0000.0001) selectNHfreeSurf = /* Non-Hyd (free-)Surface option */
(PID.TID 0000.0001)                       0
(PID.TID 0000.0001)     ;
(PID.TID 0000.0001) quasiHydrostatic = /* Quasi-Hydrostatic on/off flag */
(PID.TID 0000.0001)                   F
(PID.TID 0000.0001)     ;
(PID.TID 0000.0001) calc_wVelocity = /* vertical velocity calculation on/off flag */
(PID.TID 0000.0001)                   T
(PID.TID 0000.0001)     ;
(PID.TID 0000.0001) momStepping =  /* Momentum equation on/off flag */
(PID.TID 0000.0001)                   T
(PID.TID 0000.0001)     ;
[...]
(PID.TID 0000.0001) %MON forcing_qnet_del2            =   2.7342599543089E-01
(PID.TID 0000.0001) %MON forcing_qsw_max              =   0.0000000000000E+00
(PID.TID 0000.0001) %MON forcing_qsw_min              =   0.0000000000000E+00
(PID.TID 0000.0001) %MON forcing_qsw_mean             =   0.0000000000000E+00
(PID.TID 0000.0001) %MON forcing_qsw_sd               =   0.0000000000000E+00
(PID.TID 0000.0001) %MON forcing_qsw_del2             =   0.0000000000000E+00
(PID.TID 0000.0001) %MON forcing_empmr_max            =   6.6865915471226E-05
(PID.TID 0000.0001) %MON forcing_empmr_min            =  -1.5018765964214E-04
(PID.TID 0000.0001) %MON forcing_empmr_mean           =   7.7320599494488E-09
(PID.TID 0000.0001) %MON forcing_empmr_sd             =   2.3858729798697E-05
(PID.TID 0000.0001) %MON forcing_empmr_del2           =   1.1192342175733E-07
(PID.TID 0000.0001) %MON forcing_fu_max               =   2.6902737915516E-01
(PID.TID 0000.0001) %MON forcing_fu_min               =  -1.5706808120012E-01
(PID.TID 0000.0001) %MON forcing_fu_mean              =   1.7820432460578E-02
(PID.TID 0000.0001) %MON forcing_fu_sd                =   8.9597462322892E-02
(PID.TID 0000.0001) %MON forcing_fu_del2              =   2.4876104015851E-04
(PID.TID 0000.0001) %MON forcing_fv_max               =   1.9845492169261E-01
(PID.TID 0000.0001) %MON forcing_fv_min               =  -1.5973595827818E-01
(PID.TID 0000.0001) %MON forcing_fv_mean              =  -6.3949581310796E-03
(PID.TID 0000.0001) %MON forcing_fv_sd                =   4.4425766452552E-02
(PID.TID 0000.0001) %MON forcing_fv_del2              =   1.7992767173481E-04
(PID.TID 0000.0001) %MON trAdv_CFL_u_max              =   3.5352623505095E-02
(PID.TID 0000.0001) %MON trAdv_CFL_v_max              =   2.9848757134210E-02
(PID.TID 0000.0001) %MON trAdv_CFL_w_max              =   6.5643222514808E-02
(PID.TID 0000.0001) %MON advcfl_uvel_max              =   3.5922088513649E-02
(PID.TID 0000.0001) %MON advcfl_vvel_max              =   2.9809974673633E-02
(PID.TID 0000.0001) %MON advcfl_wvel_max              =   1.4438618725245E-01
(PID.TID 0000.0001) %MON advcfl_W_hf_max              =   6.1984845063846E-02
(PID.TID 0000.0001) %MON pe_b_mean                    =   3.9693596634765E-04
(PID.TID 0000.0001) %MON ke_max                       =   3.1399873299563E-02
(PID.TID 0000.0001) %MON ke_mean                      =   1.1324338895366E-04
(PID.TID 0000.0001) %MON ke_vol                       =   1.2571476858570E+18
(PID.TID 0000.0001) %MON vort_r_min                   =  -8.9756914426546E-07
(PID.TID 0000.0001) %MON vort_r_max                   =   1.0031502192675E-06
(PID.TID 0000.0001) %MON vort_a_mean                  =  -2.4002453570025E-05
(PID.TID 0000.0001) %MON vort_a_sd                    =   7.3138178063172E-05
(PID.TID 0000.0001) %MON vort_p_mean                  =  -2.8585773838203E-05
(PID.TID 0000.0001) %MON vort_p_sd                    =   1.1453389381361E-04
(PID.TID 0000.0001) %MON surfExpan_theta_mean         =  -2.1433805500877E-05
(PID.TID 0000.0001) %MON surfExpan_salt_mean          =  -1.8408135467688E-06
(PID.TID 0000.0001) // =======================================================
(PID.TID 0000.0001) // End MONITOR dynamic field statistics
(PID.TID 0000.0001) // =======================================================
(PID.TID 0000.0001) // =======================================================
(PID.TID 0000.0001) // Begin MONITOR ptracer field statistics
(PID.TID 0000.0001) // =======================================================
(PID.TID 0000.0001) %MON trcstat_ptracer01_max        =   2.4429507651219E+00
(PID.TID 0000.0001) %MON trcstat_ptracer01_min        =   1.6412513561985E+00
(PID.TID 0000.0001) %MON trcstat_ptracer01_mean       =   2.2619400763341E+00
(PID.TID 0000.0001) %MON trcstat_ptracer01_sd         =   1.0332291014195E-01
(PID.TID 0000.0001) %MON trcstat_ptracer01_del2       =   3.5341239889536E-05
(PID.TID 0000.0001) %MON trcstat_ptracer02_max        =   2.5620573086793E+00
(PID.TID 0000.0001) %MON trcstat_ptracer02_min        =   1.9501841706408E+00
(PID.TID 0000.0001) %MON trcstat_ptracer02_mean       =   2.3641948158158E+00
(PID.TID 0000.0001) %MON trcstat_ptracer02_sd         =   4.9630238307458E-02
(PID.TID 0000.0001) %MON trcstat_ptracer02_del2       =   2.3375818191120E-05
(PID.TID 0000.0001) %MON trcstat_ptracer03_max        =   3.2964127080408E-03
(PID.TID 0000.0001) %MON trcstat_ptracer03_min        =   4.8473973982245E-05
(PID.TID 0000.0001) %MON trcstat_ptracer03_mean       =   2.1265261907930E-03
(PID.TID 0000.0001) %MON trcstat_ptracer03_sd         =   6.9845584656806E-04
(PID.TID 0000.0001) %MON trcstat_ptracer03_del2       =   2.2289103391342E-07
(PID.TID 0000.0001) %MON trcstat_ptracer04_max        =   3.0009238820341E-04
(PID.TID 0000.0001) %MON trcstat_ptracer04_min        =  -1.8572981178292E-07
(PID.TID 0000.0001) %MON trcstat_ptracer04_mean       =   5.9526030868839E-06
(PID.TID 0000.0001) %MON trcstat_ptracer04_sd         =   2.6323951460465E-05
(PID.TID 0000.0001) %MON trcstat_ptracer04_del2       =   3.2536975876492E-08
(PID.TID 0000.0001) %MON trcstat_ptracer05_max        =   3.8415848000905E-01
(PID.TID 0000.0001) %MON trcstat_ptracer05_min        =   3.9792086668288E-03
(PID.TID 0000.0001) %MON trcstat_ptracer05_mean       =   1.6195952387257E-01
(PID.TID 0000.0001) %MON trcstat_ptracer05_sd         =   7.3407276115872E-02
(PID.TID 0000.0001) %MON trcstat_ptracer05_del2       =   3.0953087221734E-05
(PID.TID 0000.0001) // =======================================================
(PID.TID 0000.0001) // End MONITOR ptracers field statistics
(PID.TID 0000.0001) // =======================================================
 Computing Diagnostic #     23  ETAN         Counter:       4   Parms: SM      M1      
 Computing Diagnostic #     24  ETANSQ       Counter:       4   Parms: SM P    M1      
 Computing Diagnostic #     25  DETADT2      Counter:       4   Parms: SM      M1      
 Computing Diagnostic #     73  PHIBOT       Counter:       4   Parms: SM      M1      
 Computing Diagnostic #     74  PHIBOTSQ     Counter:       4   Parms: SM P    M1      
 Computing Diagnostic #    278  DICTFLX      Counter:       4   Parms: SM P    L1      
 Computing Diagnostic #    279  DICOFLX      Counter:       4   Parms: SM P    L1      
 Computing Diagnostic #    280  DICCFLX      Counter:       4   Parms: SM P    L1      
 Computing Diagnostic #    281  DICPCO2      Counter:       4   Parms: SM P    M1      
 Computing Diagnostic #    282  DICPHAV      Counter:       4   Parms: SM P    M1      
(PID.TID 0000.0001) %CHECKPOINT         4 ckptA
(PID.TID 0000.0001)   Seconds in section "ALL                    [THE_MODEL_MAIN]":
(PID.TID 0000.0001)           User time:  0.69409098289906979
(PID.TID 0000.0001)         System time:  0.14079999551177025
(PID.TID 0000.0001)     Wall clock time:  0.86071515083312988
(PID.TID 0000.0001)          No. starts:           1
(PID.TID 0000.0001)           No. stops:           1
(PID.TID 0000.0001)   Seconds in section "INITIALISE_FIXED       [THE_MODEL_MAIN]":
(PID.TID 0000.0001)           User time:   3.8619999773800373E-002
(PID.TID 0000.0001)         System time:   2.0593999885022640E-002
(PID.TID 0000.0001)     Wall clock time:   7.9931974411010742E-002
(PID.TID 0000.0001)          No. starts:           1
(PID.TID 0000.0001)           No. stops:           1
(PID.TID 0000.0001)   Seconds in section "THE_MAIN_LOOP          [THE_MODEL_MAIN]":
(PID.TID 0000.0001)           User time:  0.65544400736689568
(PID.TID 0000.0001)         System time:  0.12019999697804451
(PID.TID 0000.0001)     Wall clock time:  0.78075695037841797
(PID.TID 0000.0001)          No. starts:           1
(PID.TID 0000.0001)           No. stops:           1
(PID.TID 0000.0001)   Seconds in section "INITIALISE_VARIA    [THE_MAIN_LOOP]":
(PID.TID 0000.0001)           User time:   5.9093996882438660E-002
(PID.TID 0000.0001)         System time:   5.2893003448843956E-002
(PID.TID 0000.0001)     Wall clock time:  0.11256313323974609
(PID.TID 0000.0001)          No. starts:           1
(PID.TID 0000.0001)           No. stops:           1
(PID.TID 0000.0001)   Seconds in section "MAIN LOOP           [THE_MAIN_LOOP]":
(PID.TID 0000.0001)           User time:  0.59632799029350281
(PID.TID 0000.0001)         System time:   6.7301996052265167E-002
(PID.TID 0000.0001)     Wall clock time:  0.66816902160644531
(PID.TID 0000.0001)          No. starts:           1
(PID.TID 0000.0001)           No. stops:           1
(PID.TID 0000.0001)   Seconds in section "MAIN_DO_LOOP        [THE_MAIN_LOOP]":
(PID.TID 0000.0001)           User time:  0.59629799425601959
(PID.TID 0000.0001)         System time:   6.7299999296665192E-002
(PID.TID 0000.0001)     Wall clock time:  0.66813778877258301
(PID.TID 0000.0001)          No. starts:           4
(PID.TID 0000.0001)           No. stops:           4
(PID.TID 0000.0001)   Seconds in section "FORWARD_STEP        [MAIN_DO_LOOP]":
(PID.TID 0000.0001)           User time:  0.59625104814767838
(PID.TID 0000.0001)         System time:   6.7299000918865204E-002
(PID.TID 0000.0001)     Wall clock time:  0.66808795928955078
(PID.TID 0000.0001)          No. starts:           4
(PID.TID 0000.0001)           No. stops:           4
(PID.TID 0000.0001)   Seconds in section "DO_STATEVARS_DIAGS  [FORWARD_STEP]":
(PID.TID 0000.0001)           User time:   3.4493207931518555E-004
(PID.TID 0000.0001)         System time:   2.1003186702728271E-005
(PID.TID 0000.0001)     Wall clock time:   3.6549568176269531E-004
(PID.TID 0000.0001)          No. starts:           8
(PID.TID 0000.0001)           No. stops:           8
(PID.TID 0000.0001)   Seconds in section "LOAD_FIELDS_DRIVER  [FORWARD_STEP]":
(PID.TID 0000.0001)           User time:   2.0300000905990601E-003
(PID.TID 0000.0001)         System time:   1.3170018792152405E-003
(PID.TID 0000.0001)     Wall clock time:   3.3526420593261719E-003
(PID.TID 0000.0001)          No. starts:           4
(PID.TID 0000.0001)           No. stops:           4
(PID.TID 0000.0001)   Seconds in section "EXTERNAL_FLDS_LOAD [LOAD_FLDS_DRIVER]":
(PID.TID 0000.0001)           User time:   1.3109669089317322E-003
(PID.TID 0000.0001)         System time:   8.6699426174163818E-004
(PID.TID 0000.0001)     Wall clock time:   2.1800994873046875E-003
(PID.TID 0000.0001)          No. starts:           4
(PID.TID 0000.0001)           No. stops:           4
(PID.TID 0000.0001)   Seconds in section "DO_ATMOSPHERIC_PHYS [FORWARD_STEP]":
(PID.TID 0000.0001)           User time:   2.3990869522094727E-005
(PID.TID 0000.0001)         System time:   5.9977173805236816E-006
(PID.TID 0000.0001)     Wall clock time:   3.1232833862304688E-005
(PID.TID 0000.0001)          No. starts:           4
(PID.TID 0000.0001)           No. stops:           4
(PID.TID 0000.0001)   Seconds in section "DO_OCEANIC_PHYS     [FORWARD_STEP]":
(PID.TID 0000.0001)           User time:   6.3848957419395447E-002
(PID.TID 0000.0001)         System time:   5.5100768804550171E-004
(PID.TID 0000.0001)     Wall clock time:   6.4465045928955078E-002
(PID.TID 0000.0001)          No. starts:           4
(PID.TID 0000.0001)           No. stops:           4
(PID.TID 0000.0001)   Seconds in section "GCHEM_CALC_TENDENCY [FORWARD_STEP]":
(PID.TID 0000.0001)           User time:   2.2977590560913086E-005
(PID.TID 0000.0001)         System time:   9.9837779998779297E-007
(PID.TID 0000.0001)     Wall clock time:   2.3841857910156250E-005
(PID.TID 0000.0001)          No. starts:           4
(PID.TID 0000.0001)           No. stops:           4
(PID.TID 0000.0001)   Seconds in section "THERMODYNAMICS      [FORWARD_STEP]":
(PID.TID 0000.0001)           User time:  0.32012003660202026
(PID.TID 0000.0001)         System time:   2.1749958395957947E-003
(PID.TID 0000.0001)     Wall clock time:  0.32235741615295410
(PID.TID 0000.0001)          No. starts:           4
(PID.TID 0000.0001)           No. stops:           4
(PID.TID 0000.0001)   Seconds in section "DYNAMICS            [FORWARD_STEP]":
(PID.TID 0000.0001)           User time:   8.7963029742240906E-002
(PID.TID 0000.0001)         System time:   1.3270005583763123E-003
(PID.TID 0000.0001)     Wall clock time:   8.9298963546752930E-002
(PID.TID 0000.0001)          No. starts:           4
(PID.TID 0000.0001)           No. stops:           4
(PID.TID 0000.0001)   Seconds in section "SOLVE_FOR_PRESSURE  [FORWARD_STEP]":
(PID.TID 0000.0001)           User time:   8.1209540367126465E-003
(PID.TID 0000.0001)         System time:   6.8992376327514648E-005
(PID.TID 0000.0001)     Wall clock time:   8.1961154937744141E-003
(PID.TID 0000.0001)          No. starts:           4
(PID.TID 0000.0001)           No. stops:           4
(PID.TID 0000.0001)   Seconds in section "MOM_CORRECTION_STEP [FORWARD_STEP]":
(PID.TID 0000.0001)           User time:   2.4790316820144653E-003
(PID.TID 0000.0001)         System time:   3.0025839805603027E-006
(PID.TID 0000.0001)     Wall clock time:   2.4867057800292969E-003
(PID.TID 0000.0001)          No. starts:           4
(PID.TID 0000.0001)           No. stops:           4
(PID.TID 0000.0001)   Seconds in section "INTEGR_CONTINUITY   [FORWARD_STEP]":
(PID.TID 0000.0001)           User time:   2.0279735326766968E-003
(PID.TID 0000.0001)         System time:   3.9935111999511719E-006
(PID.TID 0000.0001)     Wall clock time:   2.0341873168945312E-003
(PID.TID 0000.0001)          No. starts:           4
(PID.TID 0000.0001)           No. stops:           4
(PID.TID 0000.0001)   Seconds in section "TRC_CORRECTION_STEP [FORWARD_STEP]":
(PID.TID 0000.0001)           User time:   2.1979212760925293E-005
(PID.TID 0000.0001)         System time:   0.0000000000000000
(PID.TID 0000.0001)     Wall clock time:   2.2888183593750000E-005
(PID.TID 0000.0001)          No. starts:           4
(PID.TID 0000.0001)           No. stops:           4
(PID.TID 0000.0001)   Seconds in section "GCHEM_FORCING_SEP  [FORWARD_STEP]":
(PID.TID 0000.0001)           User time:   3.3756986260414124E-002
(PID.TID 0000.0001)         System time:   1.2450069189071655E-003
(PID.TID 0000.0001)     Wall clock time:   3.5008668899536133E-002
(PID.TID 0000.0001)          No. starts:           4
(PID.TID 0000.0001)           No. stops:           4
(PID.TID 0000.0001)   Seconds in section "BLOCKING_EXCHANGES  [FORWARD_STEP]":
(PID.TID 0000.0001)           User time:   6.1259567737579346E-003
(PID.TID 0000.0001)         System time:   9.0077519416809082E-006
(PID.TID 0000.0001)     Wall clock time:   6.1409473419189453E-003
(PID.TID 0000.0001)          No. starts:           4
(PID.TID 0000.0001)           No. stops:           4
(PID.TID 0000.0001)   Seconds in section "DO_STATEVARS_TAVE   [FORWARD_STEP]":
(PID.TID 0000.0001)           User time:   1.3910934329032898E-002
(PID.TID 0000.0001)         System time:   0.0000000000000000
(PID.TID 0000.0001)     Wall clock time:   1.3916969299316406E-002
(PID.TID 0000.0001)          No. starts:           4
(PID.TID 0000.0001)           No. stops:           4
(PID.TID 0000.0001)   Seconds in section "MONITOR             [FORWARD_STEP]":
(PID.TID 0000.0001)           User time:   2.6365995407104492E-002
(PID.TID 0000.0001)         System time:   1.9499659538269043E-004
(PID.TID 0000.0001)     Wall clock time:   2.6619195938110352E-002
(PID.TID 0000.0001)          No. starts:           4
(PID.TID 0000.0001)           No. stops:           4
(PID.TID 0000.0001)   Seconds in section "DO_THE_MODEL_IO     [FORWARD_STEP]":
(PID.TID 0000.0001)           User time:   1.9296929240226746E-002
(PID.TID 0000.0001)         System time:   1.7942994832992554E-002
(PID.TID 0000.0001)     Wall clock time:   3.7819623947143555E-002
(PID.TID 0000.0001)          No. starts:           4
(PID.TID 0000.0001)           No. stops:           4
(PID.TID 0000.0001)   Seconds in section "PTRACERS_RESET      [FORWARD_STEP]":
(PID.TID 0000.0001)           User time:   2.4005770683288574E-005
(PID.TID 0000.0001)         System time:   1.9967555999755859E-006
(PID.TID 0000.0001)     Wall clock time:   2.5272369384765625E-005
(PID.TID 0000.0001)          No. starts:           4
(PID.TID 0000.0001)           No. stops:           4
(PID.TID 0000.0001)   Seconds in section "DO_WRITE_PICKUP     [FORWARD_STEP]":
(PID.TID 0000.0001)           User time:   9.2989951372146606E-003
(PID.TID 0000.0001)         System time:   4.2350001633167267E-002
(PID.TID 0000.0001)     Wall clock time:   5.5443763732910156E-002
(PID.TID 0000.0001)          No. starts:           4
(PID.TID 0000.0001)           No. stops:           4
(PID.TID 0000.0001) // ======================================================
(PID.TID 0000.0001) // Tile <-> Tile communication statistics
(PID.TID 0000.0001) // ======================================================
(PID.TID 0000.0001) // o Tile number: 000001
(PID.TID 0000.0001) //         No. X exchanges =              0
(PID.TID 0000.0001) //            Max. X spins =              0
(PID.TID 0000.0001) //            Min. X spins =     1000000000
(PID.TID 0000.0001) //          Total. X spins =              0
(PID.TID 0000.0001) //            Avg. X spins =       0.00E+00
(PID.TID 0000.0001) //         No. Y exchanges =              0
(PID.TID 0000.0001) //            Max. Y spins =              0
(PID.TID 0000.0001) //            Min. Y spins =     1000000000
(PID.TID 0000.0001) //          Total. Y spins =              0
(PID.TID 0000.0001) //            Avg. Y spins =       0.00E+00
(PID.TID 0000.0001) // o Tile number: 000002
(PID.TID 0000.0001) //         No. X exchanges =              0
(PID.TID 0000.0001) //            Max. X spins =              0
(PID.TID 0000.0001) //            Min. X spins =     1000000000
(PID.TID 0000.0001) //          Total. X spins =              0
(PID.TID 0000.0001) //            Avg. X spins =       0.00E+00
(PID.TID 0000.0001) //         No. Y exchanges =              0
(PID.TID 0000.0001) //            Max. Y spins =              0
(PID.TID 0000.0001) //            Min. Y spins =     1000000000
(PID.TID 0000.0001) //          Total. Y spins =              0
(PID.TID 0000.0001) //            Avg. Y spins =       0.00E+00
(PID.TID 0000.0001) // o Tile number: 000003
(PID.TID 0000.0001) //         No. X exchanges =              0
(PID.TID 0000.0001) //            Max. X spins =              0
(PID.TID 0000.0001) //            Min. X spins =     1000000000
(PID.TID 0000.0001) //          Total. X spins =              0
(PID.TID 0000.0001) //            Avg. X spins =       0.00E+00
(PID.TID 0000.0001) //         No. Y exchanges =              0
(PID.TID 0000.0001) //            Max. Y spins =              0
(PID.TID 0000.0001) //            Min. Y spins =     1000000000
(PID.TID 0000.0001) //          Total. Y spins =              0
(PID.TID 0000.0001) //            Avg. Y spins =       0.00E+00
(PID.TID 0000.0001) // o Tile number: 000004
(PID.TID 0000.0001) //         No. X exchanges =              0
(PID.TID 0000.0001) //            Max. X spins =              0
(PID.TID 0000.0001) //            Min. X spins =     1000000000
(PID.TID 0000.0001) //          Total. X spins =              0
(PID.TID 0000.0001) //            Avg. X spins =       0.00E+00
(PID.TID 0000.0001) //         No. Y exchanges =              0
(PID.TID 0000.0001) //            Max. Y spins =              0
(PID.TID 0000.0001) //            Min. Y spins =     1000000000
(PID.TID 0000.0001) //          Total. Y spins =              0
(PID.TID 0000.0001) //            Avg. Y spins =       0.00E+00
(PID.TID 0000.0001) // o Thread number: 000001
(PID.TID 0000.0001) //            No. barriers =           3976
(PID.TID 0000.0001) //      Max. barrier spins =              1
(PID.TID 0000.0001) //      Min. barrier spins =              1
(PID.TID 0000.0001) //     Total barrier spins =           3976
(PID.TID 0000.0001) //      Avg. barrier spins =       1.00E+00
PROGRAM MAIN: Execution ended Normally
