(PID.TID 0000.0001) 
(PID.TID 0000.0001) // ======================================================
(PID.TID 0000.0001) //                      MITgcm UV
(PID.TID 0000.0001) //                      =========
(PID.TID 0000.0001) // ======================================================
(PID.TID 0000.0001) // execution environment starting up...
(PID.TID 0000.0001) 
(PID.TID 0000.0001) // MITgcmUV version:  checkpoint67q
(PID.TID 0000.0001) // Build user:        carrolld
(PID.TID 0000.0001) // Build host:        LMC-066220
(PID.TID 0000.0001) // Build date:        Fri Apr  3 17:22:39 PDT 2020
(PID.TID 0000.0001) 
(PID.TID 0000.0001) // =======================================================
(PID.TID 0000.0001) // Execution Environment parameter file "eedata"
(PID.TID 0000.0001) // =======================================================
(PID.TID 0000.0001) ># Example "eedata" file
(PID.TID 0000.0001) ># Lines beginning "#" are comments
(PID.TID 0000.0001) ># nTx - No. threads per process in X
(PID.TID 0000.0001) ># nTy - No. threads per process in Y
(PID.TID 0000.0001) > &EEPARMS
(PID.TID 0000.0001) > nTx=1,
(PID.TID 0000.0001) > nTy=1,
(PID.TID 0000.0001) > /
(PID.TID 0000.0001) ># Note: Some systems use & as the
(PID.TID 0000.0001) ># namelist terminator. Other systems
(PID.TID 0000.0001) ># use a / character (as shown here).
(PID.TID 0000.0001) 
(PID.TID 0000.0001) // =======================================================
(PID.TID 0000.0001) // Computational Grid Specification ( see files "SIZE.h" )
(PID.TID 0000.0001) //                                  ( and "eedata"       )
(PID.TID 0000.0001) // =======================================================
(PID.TID 0000.0001)      nPx =    1 ; /* No. processes in X */
(PID.TID 0000.0001)      nPy =    1 ; /* No. processes in Y */
(PID.TID 0000.0001)      nSx =    1 ; /* No. tiles in X per process */
(PID.TID 0000.0001)      nSy =    1 ; /* No. tiles in Y per process */
(PID.TID 0000.0001)      sNx =  128 ; /* Tile size in X */
(PID.TID 0000.0001)      sNy =   64 ; /* Tile size in Y */
(PID.TID 0000.0001)      OLx =    4 ; /* Tile overlap distance in X */
(PID.TID 0000.0001)      OLy =    4 ; /* Tile overlap distance in Y */
(PID.TID 0000.0001)      nTx =    1 ; /* No. threads in X per process */
(PID.TID 0000.0001)      nTy =    1 ; /* No. threads in Y per process */
(PID.TID 0000.0001)       Nr =   15 ; /* No. levels in the vertical   */
(PID.TID 0000.0001)       Nx =  128 ; /* Total domain size in X ( = nPx*nSx*sNx ) */
(PID.TID 0000.0001)       Ny =   64 ; /* Total domain size in Y ( = nPy*nSy*sNy ) */
(PID.TID 0000.0001)   nTiles =    1 ; /* Total no. tiles per process ( = nSx*nSy ) */
(PID.TID 0000.0001)   nProcs =    1 ; /* Total no. processes ( = nPx*nPy ) */
(PID.TID 0000.0001) nThreads =    1 ; /* Total no. threads per process ( = nTx*nTy ) */
(PID.TID 0000.0001) usingMPI =    F ; /* Flag used to control whether MPI is in use */
(PID.TID 0000.0001)                   /*  note: To execute a program with MPI calls */
(PID.TID 0000.0001)                   /*  it must be launched appropriately e.g     */
(PID.TID 0000.0001)                   /*  "mpirun -np 64 ......"                    */
(PID.TID 0000.0001) useCoupler=    F ;/* Flag used to control communications with   */
(PID.TID 0000.0001)                   /*  other model components, through a coupler */
(PID.TID 0000.0001) useNest2W_parent =    F ;/* Control 2-W Nesting comm */
(PID.TID 0000.0001) useNest2W_child  =    F ;/* Control 2-W Nesting comm */
(PID.TID 0000.0001) debugMode =    F ; /* print debug msg. (sequence of S/R calls)  */
(PID.TID 0000.0001) printMapIncludesZeros=    F ; /* print zeros in Std.Output maps */
(PID.TID 0000.0001) maxLengthPrt1D=   65 /* maxLength of 1D array printed to StdOut */
(PID.TID 0000.0001) 
(PID.TID 0000.0001) // ======================================================
(PID.TID 0000.0001) // Mapping of tiles to threads
(PID.TID 0000.0001) // ======================================================
(PID.TID 0000.0001) // -o- Thread   1, tiles (   1:   1,   1:   1)
(PID.TID 0000.0001) 
(PID.TID 0000.0001) W2_READPARMS: file data.exch2 not found
(PID.TID 0000.0001) => use W2_EXCH2 default: Single sub-domain (nFacets=1)
(PID.TID 0000.0001) W2_useE2ioLayOut=    T ;/* T: use Exch2 glob IO map; F: use model default */
(PID.TID 0000.0001) W2_mapIO        =  -1 ; /* select option for Exch2 global-IO map */
(PID.TID 0000.0001) W2_printMsg     =  -1 ; /* select option for printing information */
(PID.TID 0000.0001) ===== Start setting W2 TOPOLOGY:
(PID.TID 0000.0001)  write to log-file: w2_tile_topology.0000.log
(PID.TID 0000.0001) =====       setting W2 TOPOLOGY: Done
(PID.TID 0000.0001) 
(PID.TID 0000.0001)  INI_PARMS: opening model parameter file "data"
(PID.TID 0000.0001)  OPEN_COPY_DATA_FILE: opening file data
(PID.TID 0000.0001) // =======================================================
(PID.TID 0000.0001) // Parameter file "data"
(PID.TID 0000.0001) // =======================================================
(PID.TID 0000.0001) ># ====================
(PID.TID 0000.0001) ># | Model parameters |
(PID.TID 0000.0001) ># ====================
(PID.TID 0000.0001) >#
(PID.TID 0000.0001) ># Continuous equation parameters
(PID.TID 0000.0001) > &PARM01
(PID.TID 0000.0001) > tRef           = 15*20.,
(PID.TID 0000.0001) > sRef           = 15*35.,
(PID.TID 0000.0001) > no_slip_sides  = .TRUE.,
(PID.TID 0000.0001) > no_slip_bottom = .TRUE.,
(PID.TID 0000.0001) >#
(PID.TID 0000.0001) > viscAr=1.E-3,
(PID.TID 0000.0001) >#
(PID.TID 0000.0001) > viscAh=2.E5,
(PID.TID 0000.0001) > viscAhGrid=1.E-2,
(PID.TID 0000.0001) >#
(PID.TID 0000.0001) > diffKhT=0.E3,
(PID.TID 0000.0001) > diffKhS=0.E3,
(PID.TID 0000.0001) > diffKrBL79surf= 3.E-5,
(PID.TID 0000.0001) > diffKrBL79deep= 13.E-5,
(PID.TID 0000.0001) > diffKrBL79Ho  = -2000.,
(PID.TID 0000.0001) > diffKrBL79scl = 150.,
(PID.TID 0000.0001) >#
(PID.TID 0000.0001) > bottomDragQuadratic = 0.001,
(PID.TID 0000.0001) >#when using ggl90
(PID.TID 0000.0001) > ivdc_kappa=10.,
(PID.TID 0000.0001) > implicitDiffusion=.TRUE.,
(PID.TID 0000.0001) > implicitViscosity=.TRUE.,
(PID.TID 0000.0001) > viscC4Leith=1.5,
(PID.TID 0000.0001) > viscC4Leithd=1.5,
(PID.TID 0000.0001) > viscA4GridMax=0.5,
(PID.TID 0000.0001) > useAreaViscLength=.TRUE.,
(PID.TID 0000.0001) > useRealFreshWaterFlux=.TRUE.,
(PID.TID 0000.0001) > balanceSaltClimRelax=.TRUE.,
(PID.TID 0000.0001) > allowFreezing=.FALSE.,
(PID.TID 0000.0001) > hFacMinDr=50.,
(PID.TID 0000.0001) > hFacMin=0.1,
(PID.TID 0000.0001) > hFacInf=0.1,
(PID.TID 0000.0001) > hFacSup=5.,
(PID.TID 0000.0001) > select_rStar=2,
(PID.TID 0000.0001) > nonlinFreeSurf=4,
(PID.TID 0000.0001) > gravity=9.81,
(PID.TID 0000.0001) > rhonil=1029.,
(PID.TID 0000.0001) > rhoConst=1029.,
(PID.TID 0000.0001) > rhoConstFresh=1000.,
(PID.TID 0000.0001) > convertFW2Salt=-1.,
(PID.TID 0000.0001) > eosType='JMD95Z',
(PID.TID 0000.0001) > implicitFreeSurface=.TRUE.,
(PID.TID 0000.0001) > exactConserv=.TRUE.,
(PID.TID 0000.0001) > useSingleCpuIO=.TRUE.,
(PID.TID 0000.0001) > tempAdvScheme=30,
(PID.TID 0000.0001) > saltAdvScheme=30,
(PID.TID 0000.0001) > tempVertAdvScheme=3,
(PID.TID 0000.0001) > saltVertAdvScheme=3,
(PID.TID 0000.0001) > tempImplVertAdv=.TRUE.,
(PID.TID 0000.0001) > saltImplVertAdv=.TRUE.,
(PID.TID 0000.0001) > staggerTimeStep=.TRUE.,
(PID.TID 0000.0001) > vectorInvariantMomentum=.TRUE.,
(PID.TID 0000.0001) >#when using the cd scheme:
(PID.TID 0000.0001) > useCDscheme=.TRUE.,
(PID.TID 0000.0001) > useJamartWetPoints=.TRUE.,
(PID.TID 0000.0001) > readBinaryPrec=32,
(PID.TID 0000.0001) > writeBinaryPrec=32,
(PID.TID 0000.0001) > debugLevel=1,
(PID.TID 0000.0001) > /
(PID.TID 0000.0001) >
(PID.TID 0000.0001) ># Elliptic solver parameters
(PID.TID 0000.0001) > &PARM02
(PID.TID 0000.0001) > cg2dMaxIters=300,
(PID.TID 0000.0001) > cg2dTargetResWunit=1.E-12,
(PID.TID 0000.0001) > /
(PID.TID 0000.0001) >
(PID.TID 0000.0001) ># Time stepping parameters
(PID.TID 0000.0001) > &PARM03
(PID.TID 0000.0001) > nIter0=0,
(PID.TID 0000.0001) > nTimeSteps=4,
(PID.TID 0000.0001) > forcing_In_AB=.FALSE.,
(PID.TID 0000.0001) > momDissip_In_AB=.FALSE.,
(PID.TID 0000.0001) >#when using the cd scheme:
(PID.TID 0000.0001) ># epsAB_CD = 0.25,
(PID.TID 0000.0001) > tauCD=321428.,
(PID.TID 0000.0001) > deltaTmom   =1200.,
(PID.TID 0000.0001) > deltaTtracer=1200.,
(PID.TID 0000.0001) > deltaTfreesurf=1200.,
(PID.TID 0000.0001) > deltaTClock =1200.,
(PID.TID 0000.0001) >#when using ab2:
(PID.TID 0000.0001) ># abEps = 0.1,
(PID.TID 0000.0001) >#when using ab3:
(PID.TID 0000.0001) > doAB_onGtGs=.FALSE.,
(PID.TID 0000.0001) > alph_AB=0.5,
(PID.TID 0000.0001) > beta_AB=0.281105,
(PID.TID 0000.0001) >#
(PID.TID 0000.0001) > pChkptFreq  =31536000.0,
(PID.TID 0000.0001) > chkptFreq   =31536000.0,
(PID.TID 0000.0001) > monitorFreq = 1.0,
(PID.TID 0000.0001) > dumpInitAndLast = .FALSE.,
(PID.TID 0000.0001) > adjDumpFreq = 31536000.0,
(PID.TID 0000.0001) > adjMonitorFreq = 43200.0,
(PID.TID 0000.0001) > pickupStrictlyMatch=.FALSE.,
(PID.TID 0000.0001) > periodicExternalForcing=.TRUE.,
(PID.TID 0000.0001) > externForcingPeriod=2592000.,
(PID.TID 0000.0001) > externForcingCycle=31104000.,
(PID.TID 0000.0001) > /
(PID.TID 0000.0001) >
(PID.TID 0000.0001) ># Gridding parameters
(PID.TID 0000.0001) > &PARM04
(PID.TID 0000.0001) > usingSphericalPolarGrid=.TRUE.,
(PID.TID 0000.0001) > delR=  50., 70.,  100., 140., 190.,
(PID.TID 0000.0001) >       240., 290., 340., 390., 440.,
(PID.TID 0000.0001) >       490., 540., 590., 640., 690.,
(PID.TID 0000.0001) > ygOrigin=-90.,
(PID.TID 0000.0001) > delX=128*2.8125,
(PID.TID 0000.0001) > delY=64*2.8125,
(PID.TID 0000.0001) > /
(PID.TID 0000.0001) >
(PID.TID 0000.0001) ># Input datasets
(PID.TID 0000.0001) > &PARM05
(PID.TID 0000.0001) > bathyFile       = 'bathy.bin',
(PID.TID 0000.0001) > hydrogThetaFile = 'Theta.0005184000',
(PID.TID 0000.0001) > hydrogSaltFile  = 'Salt.0005184000',
(PID.TID 0000.0001) > uVelInitFile    = 'Uvel.0005184000',
(PID.TID 0000.0001) > vVelInitFile    = 'Vvel.0005184000',
(PID.TID 0000.0001) > pSurfInitFile   = 'Eta.0005184000',
(PID.TID 0000.0001) > /
(PID.TID 0000.0001) 
(PID.TID 0000.0001)  INI_PARMS ; starts to read PARM01
(PID.TID 0000.0001)  INI_PARMS ; read PARM01 : OK
(PID.TID 0000.0001)  INI_PARMS ; starts to read PARM02
(PID.TID 0000.0001)  INI_PARMS ; read PARM02 : OK
(PID.TID 0000.0001)  INI_PARMS ; starts to read PARM03
(PID.TID 0000.0001)  INI_PARMS ; read PARM03 : OK
(PID.TID 0000.0001)  INI_PARMS ; starts to read PARM04
(PID.TID 0000.0001)  INI_PARMS ; read PARM04 : OK
(PID.TID 0000.0001)  INI_PARMS ; starts to read PARM05
(PID.TID 0000.0001)  INI_PARMS ; read PARM05 : OK
(PID.TID 0000.0001)  INI_PARMS: finished reading file "data"
(PID.TID 0000.0001)  PACKAGES_BOOT: opening data.pkg
(PID.TID 0000.0001)  OPEN_COPY_DATA_FILE: opening file data.pkg
(PID.TID 0000.0001) // =======================================================
(PID.TID 0000.0001) // Parameter file "data.pkg"
(PID.TID 0000.0001) // =======================================================
(PID.TID 0000.0001) ># Packages
(PID.TID 0000.0001) > &PACKAGES
(PID.TID 0000.0001) > useEXF        = .TRUE.,
(PID.TID 0000.0001) > useCAL        = .TRUE.,
(PID.TID 0000.0001) > useGMRedi     = .TRUE.,
(PID.TID 0000.0001) > useSeaice     = .TRUE.,
(PID.TID 0000.0001) > useGGL90      = .TRUE.,
(PID.TID 0000.0001) > useSALT_PlUME =.TRUE.,
(PID.TID 0000.0001) > useDiagnostics=.TRUE.,
(PID.TID 0000.0001) > usePTRACERS   = .TRUE.,
(PID.TID 0000.0001) > useGCHEM      = .TRUE.,
(PID.TID 0000.0001) > /
(PID.TID 0000.0001) 
(PID.TID 0000.0001)  PACKAGES_BOOT: finished reading data.pkg
(PID.TID 0000.0001)  PACKAGES_BOOT: On/Off package Summary
 --------  pkgs with a standard "usePKG" On/Off switch in "data.pkg":  --------
 pkg/ggl90                compiled   and   used ( useGGL90                 = T )
 pkg/gmredi               compiled   and   used ( useGMRedi                = T )
 pkg/cal                  compiled   and   used ( useCAL                   = T )
 pkg/exf                  compiled   and   used ( useEXF                   = T )
 pkg/smooth               compiled but not used ( useSMOOTH                = F )
 pkg/ctrl                 compiled but not used ( useCTRL                  = F )
 pkg/ptracers             compiled   and   used ( usePTRACERS              = T )
 pkg/gchem                compiled   and   used ( useGCHEM                 = T )
 pkg/seaice               compiled   and   used ( useSEAICE                = T )
 pkg/salt_plume           compiled   and   used ( useSALT_PLUME            = T )
 pkg/diagnostics          compiled   and   used ( useDiagnostics           = T )
 -------- pkgs without standard "usePKG" On/Off switch in "data.pkg":  --------
 pkg/generic_advdiff      compiled   and   used ( useGAD                   = T )
 pkg/mom_common           compiled   and   used ( momStepping              = T )
 pkg/mom_vecinv           compiled   and   used ( +vectorInvariantMomentum = T )
 pkg/cd_code              compiled   and   used ( useCDscheme              = T )
 pkg/monitor              compiled   and   used ( monitorFreq > 0.         = T )
 pkg/debug                compiled but not used ( debugMode                = F )
 pkg/exch2                compiled   and   used
 pkg/rw                   compiled   and   used
 pkg/mdsio                compiled   and   used
(PID.TID 0000.0001)  PACKAGES_BOOT: End of package Summary
(PID.TID 0000.0001) 
(PID.TID 0000.0001) CAL_READPARMS: opening data.cal
(PID.TID 0000.0001)  OPEN_COPY_DATA_FILE: opening file data.cal
(PID.TID 0000.0001) // =======================================================
(PID.TID 0000.0001) // Parameter file "data.cal"
(PID.TID 0000.0001) // =======================================================
(PID.TID 0000.0001) >#
(PID.TID 0000.0001) ># *******************
(PID.TID 0000.0001) ># Calendar Parameters
(PID.TID 0000.0001) ># *******************
(PID.TID 0000.0001) > &CAL_NML
(PID.TID 0000.0001) > TheCalendar='gregorian',
(PID.TID 0000.0001) > startDate_1=19920101,
(PID.TID 0000.0001) ># startDate_2=120000,
(PID.TID 0000.0001) > startDate_2=000000,
(PID.TID 0000.0001) > calendarDumps = .TRUE.,
(PID.TID 0000.0001) > /
(PID.TID 0000.0001) 
(PID.TID 0000.0001) CAL_READPARMS: finished reading data.cal
(PID.TID 0000.0001) EXF_READPARMS: opening data.exf
(PID.TID 0000.0001)  OPEN_COPY_DATA_FILE: opening file data.exf
(PID.TID 0000.0001) // =======================================================
(PID.TID 0000.0001) // Parameter file "data.exf"
(PID.TID 0000.0001) // =======================================================
(PID.TID 0000.0001) ># *********************
(PID.TID 0000.0001) ># External Forcing Data
(PID.TID 0000.0001) ># *********************
(PID.TID 0000.0001) >#
(PID.TID 0000.0001) > &EXF_NML_01
(PID.TID 0000.0001) >#
(PID.TID 0000.0001) > useAtmWind        = .TRUE.,
(PID.TID 0000.0001) >#NCEP VALUES:
(PID.TID 0000.0001) ># exf_albedo        = 0.15,
(PID.TID 0000.0001) ># exf_scal_BulkCdn  = 1.015,
(PID.TID 0000.0001) >#
(PID.TID 0000.0001) >#TO COMBINE WITH ALLOW_ZENITH_ANGLE:
(PID.TID 0000.0001) > exf_albedo        = 0.1,
(PID.TID 0000.0001) > useExfZenIncoming = .TRUE.,
(PID.TID 0000.0001) > select_ZenAlbedo  = 1,
(PID.TID 0000.0001) >#
(PID.TID 0000.0001) > ocean_emissivity = 0.97,
(PID.TID 0000.0001) > ice_emissivity = 0.95,
(PID.TID 0000.0001) > snow_emissivity = 0.95,
(PID.TID 0000.0001) >#
(PID.TID 0000.0001) > exf_iprec         = 32,
(PID.TID 0000.0001) > exf_yftype        = 'RL',
(PID.TID 0000.0001) > useExfYearlyFields= .TRUE.,
(PID.TID 0000.0001) > useExfCheckRange  = .FALSE.,
(PID.TID 0000.0001) > /
(PID.TID 0000.0001) >#
(PID.TID 0000.0001) > &EXF_NML_02
(PID.TID 0000.0001) > atempfile         = 'EIG_tmp2m_degC_plus_ECCO_v4r1_ctrl_2000',
(PID.TID 0000.0001) > aqhfile           = 'EIG_spfh2m_plus_ECCO_v4r1_ctrl_2000',
(PID.TID 0000.0001) > precipfile        = 'EIG_rain_plus_ECCO_v4r1_ctrl_2000',
(PID.TID 0000.0001) > uwindfile         = 'EIG_u10m_2000',
(PID.TID 0000.0001) > vwindfile         = 'EIG_v10m_2000',
(PID.TID 0000.0001) > swdownfile        = 'EIG_dsw_plus_ECCO_v4r1_ctrl_2000',
(PID.TID 0000.0001) > lwdownfile        = 'EIG_dlw_plus_ECCO_v4r1_ctrl_2000',
(PID.TID 0000.0001) > runofffile        = 'runoff-2d-Fekete-1deg-mon-V4-SMOOTH.bin',
(PID.TID 0000.0001) ># apco2file         = 'apCO2_2000',
(PID.TID 0000.0001) >#
(PID.TID 0000.0001) > atempperiod       = -12.,
(PID.TID 0000.0001) > aqhperiod         = -12.,
(PID.TID 0000.0001) > precipperiod      = -12.,
(PID.TID 0000.0001) > uwindperiod       = -12.,
(PID.TID 0000.0001) > vwindperiod       = -12.,
(PID.TID 0000.0001) > swdownperiod      = -12.,
(PID.TID 0000.0001) > lwdownperiod      = -12.,
(PID.TID 0000.0001) > runoffperiod      = -12,
(PID.TID 0000.0001) ># apco2period       = -12.,
(PID.TID 0000.0001) > /
(PID.TID 0000.0001) >#
(PID.TID 0000.0001) > &EXF_NML_03
(PID.TID 0000.0001) >#NOT FOR EIG exf_offset_atemp  = 273.3971,
(PID.TID 0000.0001) > exf_offset_atemp  = 273.15,
(PID.TID 0000.0001) >#NOT FOR NEW RUNOFF FIELD exf_inscal_runoff = 3.1710e-08,
(PID.TID 0000.0001) > exf_inscal_swdown = -1.0,
(PID.TID 0000.0001) > exf_inscal_lwdown = -1.0,
(PID.TID 0000.0001) ># to compensate for sea level rise for nlfs/realFWF
(PID.TID 0000.0001) >#precip_exfremo_intercept = 1.073E-9,
(PID.TID 0000.0001) >#precip_exfremo_slope = -3.340E-18,
(PID.TID 0000.0001) > /
(PID.TID 0000.0001) >#
(PID.TID 0000.0001) > &EXF_NML_04
(PID.TID 0000.0001) >#
(PID.TID 0000.0001) > atemp_lon0      = -178.5,
(PID.TID 0000.0001) > atemp_lon_inc   = 3.0,
(PID.TID 0000.0001) > atemp_lat0      = -88.5,
(PID.TID 0000.0001) > atemp_lat_inc   = 59*3.0,
(PID.TID 0000.0001) > atemp_nlon      = 120,
(PID.TID 0000.0001) > atemp_nlat      = 60,
(PID.TID 0000.0001) >#
(PID.TID 0000.0001) > aqh_lon0        = -178.5,
(PID.TID 0000.0001) > aqh_lon_inc     = 3.0,
(PID.TID 0000.0001) > aqh_lat0        = -88.5,
(PID.TID 0000.0001) > aqh_lat_inc     = 59*3.0,
(PID.TID 0000.0001) > aqh_nlon        = 120,
(PID.TID 0000.0001) > aqh_nlat        = 60,
(PID.TID 0000.0001) >#
(PID.TID 0000.0001) > precip_lon0     = -178.5,
(PID.TID 0000.0001) > precip_lon_inc  = 3.0,
(PID.TID 0000.0001) > precip_lat0     = -88.5,
(PID.TID 0000.0001) > precip_lat_inc  = 59*3.0,
(PID.TID 0000.0001) > precip_nlon     = 120,
(PID.TID 0000.0001) > precip_nlat     = 60,
(PID.TID 0000.0001) >#
(PID.TID 0000.0001) > uwind_lon0      = -178.5,
(PID.TID 0000.0001) > uwind_lon_inc   = 3.0,
(PID.TID 0000.0001) > uwind_lat0      = -88.5,
(PID.TID 0000.0001) > uwind_lat_inc   = 59*3.0,
(PID.TID 0000.0001) > uwind_nlon      = 120,
(PID.TID 0000.0001) > uwind_nlat      = 60,
(PID.TID 0000.0001) >#
(PID.TID 0000.0001) > vwind_lon0      = -178.5,
(PID.TID 0000.0001) > vwind_lon_inc   = 3.0,
(PID.TID 0000.0001) > vwind_lat0      = -88.5,
(PID.TID 0000.0001) > vwind_lat_inc   = 59*3.0,
(PID.TID 0000.0001) > vwind_nlon      = 120,
(PID.TID 0000.0001) > vwind_nlat      = 60,
(PID.TID 0000.0001) >#
(PID.TID 0000.0001) > swdown_lon0     = -178.5,
(PID.TID 0000.0001) > swdown_lon_inc  = 3.0,
(PID.TID 0000.0001) > swdown_lat0     = -88.5,
(PID.TID 0000.0001) > swdown_lat_inc  = 59*3.0,
(PID.TID 0000.0001) > swdown_nlon     = 120,
(PID.TID 0000.0001) > swdown_nlat     = 60,
(PID.TID 0000.0001) >#
(PID.TID 0000.0001) > lwdown_lon0     = -178.5,
(PID.TID 0000.0001) > lwdown_lon_inc  = 3.0,
(PID.TID 0000.0001) > lwdown_lat0     = -88.5,
(PID.TID 0000.0001) > lwdown_lat_inc  = 59*3.0,
(PID.TID 0000.0001) > lwdown_nlon     = 120,
(PID.TID 0000.0001) > lwdown_nlat     = 60,
(PID.TID 0000.0001) >#
(PID.TID 0000.0001) > runoff_lon0     = -178.5,
(PID.TID 0000.0001) > runoff_lon_inc  = 3.0,
(PID.TID 0000.0001) > runoff_lat0     = -88.5,
(PID.TID 0000.0001) > runoff_lat_inc  = 59*3.0,
(PID.TID 0000.0001) > runoff_nlon     = 120,
(PID.TID 0000.0001) > runoff_nlat     = 60,
(PID.TID 0000.0001) >#
(PID.TID 0000.0001) ># apco2_lon0      = -178.5,
(PID.TID 0000.0001) ># apco2_lon_inc   = 3.0,
(PID.TID 0000.0001) ># apco2_lat0      = -88.5,
(PID.TID 0000.0001) ># apco2_lat_inc   = 59*3.0,
(PID.TID 0000.0001) ># apco2_nlon      = 120,
(PID.TID 0000.0001) ># apco2_nlat      = 60,
(PID.TID 0000.0001) > /
(PID.TID 0000.0001) 
(PID.TID 0000.0001) EXF_READPARMS: reading EXF_NML_01
(PID.TID 0000.0001) EXF_READPARMS: reading EXF_NML_02
(PID.TID 0000.0001) EXF_READPARMS: reading EXF_NML_03
(PID.TID 0000.0001) EXF_READPARMS: reading EXF_NML_04
(PID.TID 0000.0001) EXF_READPARMS: finished reading data.exf
(PID.TID 0000.0001)  GGL90_READPARMS: opening data.ggl90
(PID.TID 0000.0001)  OPEN_COPY_DATA_FILE: opening file data.ggl90
(PID.TID 0000.0001) // =======================================================
(PID.TID 0000.0001) // Parameter file "data.ggl90"
(PID.TID 0000.0001) // =======================================================
(PID.TID 0000.0001) ># =====================================================================
(PID.TID 0000.0001) ># | Parameters for Gaspar et al. (1990)'s TKE vertical mixing scheme  |
(PID.TID 0000.0001) ># =====================================================================
(PID.TID 0000.0001) > &GGL90_PARM01
(PID.TID 0000.0001) > GGL90alpha=30.,
(PID.TID 0000.0001) > GGL90TKEmin  = 1.e-7,
(PID.TID 0000.0001) > GGL90TKEbottom = 1.e-6,
(PID.TID 0000.0001) > mxlMaxFlag =2,
(PID.TID 0000.0001) > mxlSurfFlag=.TRUE.,
(PID.TID 0000.0001) > /
(PID.TID 0000.0001) 
(PID.TID 0000.0001)  GGL90_READPARMS ; starts to read GGL90_PARM01
(PID.TID 0000.0001)  GGL90_READPARMS: read GGL90_PARM01 : OK
(PID.TID 0000.0001)  GGL90_READPARMS: finished reading data.ggl90
(PID.TID 0000.0001) // =======================================================
(PID.TID 0000.0001) // GGL90 configuration
(PID.TID 0000.0001) // =======================================================
(PID.TID 0000.0001) GGL90dumpFreq =   /* GGL90 state write out interval ( s ). */
(PID.TID 0000.0001)                 0.000000000000000E+00
(PID.TID 0000.0001)     ;
(PID.TID 0000.0001) GGL90taveFreq =   /* GGL90 averaging interval ( s ). */
(PID.TID 0000.0001)                 0.000000000000000E+00
(PID.TID 0000.0001)     ;
(PID.TID 0000.0001) GGL90mixingMAPS =   /* GGL90 IO flag. */
(PID.TID 0000.0001)                   F
(PID.TID 0000.0001)     ;
(PID.TID 0000.0001) GGL90writeState =   /* GGL90 IO flag. */
(PID.TID 0000.0001)                   F
(PID.TID 0000.0001)     ;
(PID.TID 0000.0001) GGL90ck =   /* GGL90 viscosity parameter. */
(PID.TID 0000.0001)                 1.000000000000000E-01
(PID.TID 0000.0001)     ;
(PID.TID 0000.0001) GGL90ceps =   /* GGL90 dissipation parameter. */
(PID.TID 0000.0001)                 7.000000000000000E-01
(PID.TID 0000.0001)     ;
(PID.TID 0000.0001) GGL90alpha =   /* GGL90 TKE diffusivity parameter. */
(PID.TID 0000.0001)                 3.000000000000000E+01
(PID.TID 0000.0001)     ;
(PID.TID 0000.0001) GGL90m2 =   /* GGL90 wind stress to vertical stress ratio. */
(PID.TID 0000.0001)                 3.750000000000000E+00
(PID.TID 0000.0001)     ;
(PID.TID 0000.0001) GGL90TKEmin =   /* GGL90 minimum kinetic energy ( m^2/s^2 ). */
(PID.TID 0000.0001)                 1.000000000000000E-07
(PID.TID 0000.0001)     ;
(PID.TID 0000.0001) GGL90TKEsurfMin =   /* GGL90 minimum surface kinetic energy ( m^2/s^2 ). */
(PID.TID 0000.0001)                 1.000000000000000E-04
(PID.TID 0000.0001)     ;
(PID.TID 0000.0001) GGL90TKEbottom =   /* GGL90 bottom kinetic energy ( m^2/s^2 ). */
(PID.TID 0000.0001)                 1.000000000000000E-06
(PID.TID 0000.0001)     ;
(PID.TID 0000.0001) GGL90viscMax =   /* GGL90 upper limit for viscosity ( m^2/s ). */
(PID.TID 0000.0001)                 1.000000000000000E+02
(PID.TID 0000.0001)     ;
(PID.TID 0000.0001) GGL90diffMax =   /* GGL90 upper limit for diffusivity ( m^2/s ). */
(PID.TID 0000.0001)                 1.000000000000000E+02
(PID.TID 0000.0001)     ;
(PID.TID 0000.0001) GGL90diffTKEh =   /* GGL90 horizontal diffusivity for TKE ( m^2/s ). */
(PID.TID 0000.0001)                 0.000000000000000E+00
(PID.TID 0000.0001)     ;
(PID.TID 0000.0001) GGL90mixingLengthMin =   /* GGL90 minimum mixing length ( m ). */
(PID.TID 0000.0001)                 1.000000000000000E-08
(PID.TID 0000.0001)     ;
(PID.TID 0000.0001) mxlMaxFlag =   /* Flag for limiting mixing-length method */
(PID.TID 0000.0001)                       2
(PID.TID 0000.0001)     ;
(PID.TID 0000.0001) mxlSurfFlag =   /* GGL90 flag for near surface mixing. */
(PID.TID 0000.0001)                   T
(PID.TID 0000.0001)     ;
(PID.TID 0000.0001) calcMeanVertShear = /* calc Mean of Vert.Shear (vs shear of Mean flow) */
(PID.TID 0000.0001)                   F
(PID.TID 0000.0001)     ;
(PID.TID 0000.0001) GGL90: GGL90TKEFile =
(PID.TID 0000.0001) GGL90writeState =   /* GGL90 Boundary condition flag. */
(PID.TID 0000.0001)                   T
(PID.TID 0000.0001)     ;
(PID.TID 0000.0001) // =======================================================
(PID.TID 0000.0001) // End of GGL90 config. summary
(PID.TID 0000.0001) // =======================================================
(PID.TID 0000.0001) 
(PID.TID 0000.0001)  GM_READPARMS: opening data.gmredi
(PID.TID 0000.0001)  OPEN_COPY_DATA_FILE: opening file data.gmredi
(PID.TID 0000.0001) // =======================================================
(PID.TID 0000.0001) // Parameter file "data.gmredi"
(PID.TID 0000.0001) // =======================================================
(PID.TID 0000.0001) ># from MOM
(PID.TID 0000.0001) ># GM_background_K: 	isopycnal diffusion coefficien
(PID.TID 0000.0001) ># GM_maxSlope:		max slope of isopycnals
(PID.TID 0000.0001) ># GM_Scrit:		transition for scaling diffusion coefficient
(PID.TID 0000.0001) ># GM_Sd:		half width scaling for diffusion coefficient
(PID.TID 0000.0001) ># real background diff:	horizontal diffusion
(PID.TID 0000.0001) >
(PID.TID 0000.0001) ># ifdef GM_VISBECK_VARIABLE_K, include following in GM_PARM01
(PID.TID 0000.0001) ># GM_Visbeck_alpha   = 0.,
(PID.TID 0000.0001) ># GM_Visbeck_length  = 2.e+5,
(PID.TID 0000.0001) ># GM_Visbeck_depth   = 1.e+3,
(PID.TID 0000.0001) ># GM_Visbeck_maxval_K= 2.5e+3,
(PID.TID 0000.0001) >
(PID.TID 0000.0001) > &GM_PARM01
(PID.TID 0000.0001) >  GM_background_K    = 1.e+3,
(PID.TID 0000.0001) >  GM_taper_scheme    = 'gkw91',
(PID.TID 0000.0001) >  GM_maxSlope        = 1.e-2,
(PID.TID 0000.0001) >  GM_Kmin_horiz      = 100.,
(PID.TID 0000.0001) >  GM_Scrit           = 4.e-3,
(PID.TID 0000.0001) >  GM_Sd              = 1.e-3,
(PID.TID 0000.0001) > /
(PID.TID 0000.0001) >
(PID.TID 0000.0001) >
(PID.TID 0000.0001) 
(PID.TID 0000.0001)  GM_READPARMS: finished reading data.gmredi
(PID.TID 0000.0001)  PTRACERS_READPARMS: opening data.ptracers
(PID.TID 0000.0001)  OPEN_COPY_DATA_FILE: opening file data.ptracers
(PID.TID 0000.0001) // =======================================================
(PID.TID 0000.0001) // Parameter file "data.ptracers"
(PID.TID 0000.0001) // =======================================================
(PID.TID 0000.0001) > &PTRACERS_PARM01
(PID.TID 0000.0001) > PTRACERS_numInUse= 31,
(PID.TID 0000.0001) > PTRACERS_Iter0= 0,
(PID.TID 0000.0001) >#
(PID.TID 0000.0001) > PTRACERS_advScheme(:)= 31*33,
(PID.TID 0000.0001) > PTRACERS_diffKh(:)= 31*0.E3,
(PID.TID 0000.0001) > PTRACERS_diffKr(:)= 31*1.E-5,
(PID.TID 0000.0001) > PTRACERS_useGMRedi(:)= 31*.TRUE.,
(PID.TID 0000.0001) >#
(PID.TID 0000.0001) > PTRACERS_EvPrRn( 1)= 0.,
(PID.TID 0000.0001) > PTRACERS_EvPrRn(18)= 0.,
(PID.TID 0000.0001) >#
(PID.TID 0000.0001) > PTRACERS_names( 1)= 'DIC',
(PID.TID 0000.0001) > PTRACERS_initialFile(1)='ptracers_optimized_01.0000000001',
(PID.TID 0000.0001) >
(PID.TID 0000.0001) > PTRACERS_names( 2)= 'NO3',
(PID.TID 0000.0001) > PTRACERS_initialFile(2)='ptracers_optimized_02.0000000001',
(PID.TID 0000.0001) >
(PID.TID 0000.0001) > PTRACERS_names( 3)= 'NO2',
(PID.TID 0000.0001) > PTRACERS_initialFile(3)='ptracers_optimized_03.0000000001',
(PID.TID 0000.0001) >
(PID.TID 0000.0001) > PTRACERS_names( 4)= 'NH4',
(PID.TID 0000.0001) > PTRACERS_initialFile(4)='ptracers_optimized_04.0000000001',
(PID.TID 0000.0001) >
(PID.TID 0000.0001) > PTRACERS_names( 5)= 'PO4',
(PID.TID 0000.0001) > PTRACERS_initialFile(5)='ptracers_optimized_05.0000000001',
(PID.TID 0000.0001) >
(PID.TID 0000.0001) > PTRACERS_names( 6)= 'FeT',
(PID.TID 0000.0001) > PTRACERS_initialFile(6)='ptracers_optimized_06.0000000001',
(PID.TID 0000.0001) >
(PID.TID 0000.0001) > PTRACERS_names( 7)= 'SiO2',
(PID.TID 0000.0001) > PTRACERS_initialFile(7)='ptracers_optimized_07.0000000001',
(PID.TID 0000.0001) >
(PID.TID 0000.0001) > PTRACERS_names( 8)= 'DOC',
(PID.TID 0000.0001) > PTRACERS_initialFile(8)='ptracers_optimized_08.0000000001',
(PID.TID 0000.0001) >
(PID.TID 0000.0001) > PTRACERS_names( 9)= 'DON',
(PID.TID 0000.0001) > PTRACERS_initialFile(9)='ptracers_optimized_09.0000000001',
(PID.TID 0000.0001) >
(PID.TID 0000.0001) > PTRACERS_names(10)= 'DOP',
(PID.TID 0000.0001) > PTRACERS_initialFile(10)='ptracers_optimized_10.0000000001',
(PID.TID 0000.0001) >
(PID.TID 0000.0001) > PTRACERS_names(11)= 'DOFe',
(PID.TID 0000.0001) > PTRACERS_initialFile(11)='ptracers_optimized_11.0000000001',
(PID.TID 0000.0001) >
(PID.TID 0000.0001) > PTRACERS_names(12)= 'POC',
(PID.TID 0000.0001) > PTRACERS_initialFile(12)='ptracers_optimized_12.0000000001',
(PID.TID 0000.0001) >
(PID.TID 0000.0001) > PTRACERS_names(13)= 'PON',
(PID.TID 0000.0001) > PTRACERS_initialFile(13)='ptracers_optimized_13.0000000001',
(PID.TID 0000.0001) >
(PID.TID 0000.0001) > PTRACERS_names(14)= 'POP',
(PID.TID 0000.0001) > PTRACERS_initialFile(14)='ptracers_optimized_14.0000000001',
(PID.TID 0000.0001) >
(PID.TID 0000.0001) > PTRACERS_names(15)= 'POFe',
(PID.TID 0000.0001) > PTRACERS_initialFile(15)='ptracers_optimized_15.0000000001',
(PID.TID 0000.0001) >
(PID.TID 0000.0001) > PTRACERS_names(16)= 'POSi',
(PID.TID 0000.0001) > PTRACERS_initialFile(16)='ptracers_optimized_16.0000000001',
(PID.TID 0000.0001) >
(PID.TID 0000.0001) > PTRACERS_names(17)= 'PIC',
(PID.TID 0000.0001) > PTRACERS_initialFile(17)='ptracers_optimized_17.0000000001',
(PID.TID 0000.0001) >
(PID.TID 0000.0001) > PTRACERS_names(18)= 'ALK',
(PID.TID 0000.0001) > PTRACERS_initialFile(18)='ptracers_optimized_18.0000000001',
(PID.TID 0000.0001) >
(PID.TID 0000.0001) > PTRACERS_names(19)= 'O2',
(PID.TID 0000.0001) > PTRACERS_initialFile(19)='ptracers_optimized_19.0000000001',
(PID.TID 0000.0001) >
(PID.TID 0000.0001) > PTRACERS_names(20)= 'c01',
(PID.TID 0000.0001) > PTRACERS_initialFile(20)='ptracers_optimized_20.0000000001',
(PID.TID 0000.0001) >
(PID.TID 0000.0001) > PTRACERS_names(21)= 'c02',
(PID.TID 0000.0001) > PTRACERS_initialFile(21)='ptracers_optimized_21.0000000001',
(PID.TID 0000.0001) >
(PID.TID 0000.0001) > PTRACERS_names(22)= 'c03',
(PID.TID 0000.0001) > PTRACERS_initialFile(22)='ptracers_optimized_22.0000000001',
(PID.TID 0000.0001) >
(PID.TID 0000.0001) > PTRACERS_names(23)= 'c04',
(PID.TID 0000.0001) > PTRACERS_initialFile(23)='ptracers_optimized_23.0000000001',
(PID.TID 0000.0001) >
(PID.TID 0000.0001) > PTRACERS_names(24)= 'c05',
(PID.TID 0000.0001) > PTRACERS_initialFile(24)='ptracers_optimized_24.0000000001',
(PID.TID 0000.0001) >
(PID.TID 0000.0001) > PTRACERS_names(25)= 'c06',
(PID.TID 0000.0001) > PTRACERS_initialFile(25)='ptracers_optimized_25.0000000001',
(PID.TID 0000.0001) >
(PID.TID 0000.0001) > PTRACERS_names(26)= 'c07',
(PID.TID 0000.0001) > PTRACERS_initialFile(26)='ptracers_optimized_26.0000000001',
(PID.TID 0000.0001) >
(PID.TID 0000.0001) > PTRACERS_names(27)= 'Chl01',
(PID.TID 0000.0001) > PTRACERS_initialFile(27)='ptracers_optimized_27.0000000001',
(PID.TID 0000.0001) >
(PID.TID 0000.0001) > PTRACERS_names(28)= 'Chl02',
(PID.TID 0000.0001) > PTRACERS_initialFile(28)='ptracers_optimized_28.0000000001',
(PID.TID 0000.0001) >
(PID.TID 0000.0001) > PTRACERS_names(29)= 'Chl03',
(PID.TID 0000.0001) > PTRACERS_initialFile(29)='ptracers_optimized_29.0000000001',
(PID.TID 0000.0001) >
(PID.TID 0000.0001) > PTRACERS_names(30)= 'Chl04',
(PID.TID 0000.0001) > PTRACERS_initialFile(30)='ptracers_optimized_30.0000000001',
(PID.TID 0000.0001) >
(PID.TID 0000.0001) > PTRACERS_names(31)= 'Chl05',
(PID.TID 0000.0001) > PTRACERS_initialFile(31)='ptracers_optimized_31.0000000001',
(PID.TID 0000.0001) >#
(PID.TID 0000.0001) > PTRACERS_units( 1)= 'uM C'
(PID.TID 0000.0001) > PTRACERS_units( 2)= 'uM N'
(PID.TID 0000.0001) > PTRACERS_units( 3)= 'uM N'
(PID.TID 0000.0001) > PTRACERS_units( 4)= 'uM N'
(PID.TID 0000.0001) > PTRACERS_units( 5)= 'uM P'
(PID.TID 0000.0001) > PTRACERS_units( 6)= 'uM Fe'
(PID.TID 0000.0001) > PTRACERS_units( 7)= 'uM Si'
(PID.TID 0000.0001) > PTRACERS_units( 8)= 'uM C'
(PID.TID 0000.0001) > PTRACERS_units( 9)= 'uM N'
(PID.TID 0000.0001) > PTRACERS_units(10)= 'uM P'
(PID.TID 0000.0001) > PTRACERS_units(11)= 'uM Fe'
(PID.TID 0000.0001) > PTRACERS_units(12)= 'uM C'
(PID.TID 0000.0001) > PTRACERS_units(13)= 'uM N'
(PID.TID 0000.0001) > PTRACERS_units(14)= 'uM P'
(PID.TID 0000.0001) > PTRACERS_units(15)= 'uM Fe'
(PID.TID 0000.0001) > PTRACERS_units(16)= 'uM Si'
(PID.TID 0000.0001) > PTRACERS_units(17)= 'uM C'
(PID.TID 0000.0001) > PTRACERS_units(18)= 'meq/m^3'
(PID.TID 0000.0001) > PTRACERS_units(19)= 'uM O'
(PID.TID 0000.0001) > PTRACERS_units(20)= 'uM C'
(PID.TID 0000.0001) > PTRACERS_units(21)= 'uM C'
(PID.TID 0000.0001) > PTRACERS_units(22)= 'uM C'
(PID.TID 0000.0001) > PTRACERS_units(23)= 'uM C'
(PID.TID 0000.0001) > PTRACERS_units(24)= 'uM C'
(PID.TID 0000.0001) > PTRACERS_units(25)= 'uM C'
(PID.TID 0000.0001) > PTRACERS_units(26)= 'uM C'
(PID.TID 0000.0001) > PTRACERS_units(27)= 'mg/m^3'
(PID.TID 0000.0001) > PTRACERS_units(28)= 'mg/m^3'
(PID.TID 0000.0001) > PTRACERS_units(29)= 'mg/m^3'
(PID.TID 0000.0001) > PTRACERS_units(30)= 'mg/m^3'
(PID.TID 0000.0001) > PTRACERS_units(31)= 'mg/m^3'
(PID.TID 0000.0001) > /
(PID.TID 0000.0001) 
(PID.TID 0000.0001)  PTRACERS_READPARMS: finished reading data.ptracers
(PID.TID 0000.0001)  GCHEM_READPARMS: opening data.gchem
(PID.TID 0000.0001)  OPEN_COPY_DATA_FILE: opening file data.gchem
(PID.TID 0000.0001) // =======================================================
(PID.TID 0000.0001) // Parameter file "data.gchem"
(PID.TID 0000.0001) // =======================================================
(PID.TID 0000.0001) > &GCHEM_PARM01
(PID.TID 0000.0001) > useDARWIN=.TRUE.,
(PID.TID 0000.0001) >  nsubtime=1,
(PID.TID 0000.0001) > /
(PID.TID 0000.0001) 
(PID.TID 0000.0001)  GCHEM_READPARMS: finished reading data.gchem
(PID.TID 0000.0001)  DARWIN_READPARMS: opening data.darwin
(PID.TID 0000.0001)  OPEN_COPY_DATA_FILE: opening file data.darwin
(PID.TID 0000.0001) // =======================================================
(PID.TID 0000.0001) // Parameter file "data.darwin"
(PID.TID 0000.0001) // =======================================================
(PID.TID 0000.0001) > &DARWIN_FORCING_PARAMS
(PID.TID 0000.0001) > ironfile = '3deg_Mahowald_2009_soluble_iron_dust.bin',
(PID.TID 0000.0001) > ironperiod = -12,
(PID.TID 0000.0001) > darwin_inscal_iron= 1000.,
(PID.TID 0000.0001) >#
(PID.TID 0000.0001) > pCO2File = 'apCO2_2000',
(PID.TID 0000.0001) ># pCO2startdate1 = 19920101,
(PID.TID 0000.0001) ># pCO2startdate2 = 120000,
(PID.TID 0000.0001) ># pCO2period     = 86400.0,
(PID.TID 0000.0001) >  pCO2period     = -12.,
(PID.TID 0000.0001) >#
(PID.TID 0000.0001) > darwin_useEXFwind = .TRUE.,
(PID.TID 0000.0001) > darwin_useQsw = .TRUE.,
(PID.TID 0000.0001) > darwin_useSEAICE = .TRUE.,
(PID.TID 0000.0001) > /
(PID.TID 0000.0001) > &DARWIN_INTERP_PARAMS
(PID.TID 0000.0001) > iron_interpMethod = 0,
(PID.TID 0000.0001) >#
(PID.TID 0000.0001) > pCO2_lon0      = -178.5,
(PID.TID 0000.0001) > pCO2_lon_inc   = 3.0,
(PID.TID 0000.0001) > pCO2_lat0      = -88.5,
(PID.TID 0000.0001) > pCO2_lat_inc   = 59*3.0,
(PID.TID 0000.0001) > pCO2_nlon      = 120,
(PID.TID 0000.0001) > pCO2_nlat      = 60,
(PID.TID 0000.0001) >
(PID.TID 0000.0001) > /
(PID.TID 0000.0001) > &DARWIN_PARAMS
(PID.TID 0000.0001) ># do not read darwin pickup
(PID.TID 0000.0001) > darwin_pickupSuff= ' ',
(PID.TID 0000.0001) > darwin_chlInitBalanced= .FALSE.,
(PID.TID 0000.0001) > darwin_chlIter0= 1,
(PID.TID 0000.0001) > darwin_seed= 56,
(PID.TID 0000.0001) > ALPFE   =  0.9273,
(PID.TID 0000.0001) > FREEFEMAX       =  1E-4,
(PID.TID 0000.0001) > SCAV_RAT        =  5.3939814814814E-7,
(PID.TID 0000.0001) > DEPTHFESED      =   7000.0,
(PID.TID 0000.0001) ># KDOC    =  1.157407407407407E-7,
(PID.TID 0000.0001) > KDOP    =  2.314814814814815E-7,
(PID.TID 0000.0001) > KDON    =  2.314814814814815E-7,
(PID.TID 0000.0001) > KDOFE   =  2.314814814814815E-7,
(PID.TID 0000.0001) ># KPOC    =  2.314814814814815E-7,
(PID.TID 0000.0001) > KPOP    =  4.629629629629630E-7,
(PID.TID 0000.0001) > KPON    =  4.629629629629630E-7,
(PID.TID 0000.0001) > KPOFE   =  4.629629629629630E-7,
(PID.TID 0000.0001) > KPOSI   =  7.716049382716049E-8,
(PID.TID 0000.0001) > SURFDICMIN  =   100.0,
(PID.TID 0000.0001) > SURFALKMIN  =   100.0,
(PID.TID 0000.0001) > /
(PID.TID 0000.0001) > &DARWIN_RANDOM_PARAMS
(PID.TID 0000.0001) > /
(PID.TID 0000.0001) > &DARWIN_TRAIT_PARAMS
(PID.TID 0000.0001) > /
(PID.TID 0000.0001) 
(PID.TID 0000.0001)  ===================================
(PID.TID 0000.0001) GCHEM_TR_REGISTER:  Start registering GCHEM tracers
(PID.TID 0000.0001)   DARWIN_TR_REGISTER:  number of DARWIN tracers=   31
(PID.TID 0000.0001)   DARWIN_TR_REGISTER:   starting at pTrc num=    1
(PID.TID 0000.0001)   DARWIN_TR_REGISTER:  Numb. Trac & SepForc Trac:   31   31
(PID.TID 0000.0001) GCHEM_TR_REGISTER:  Numb. Trac & SepForc Trac:   31   31
(PID.TID 0000.0001) 
(PID.TID 0000.0001) 
(PID.TID 0000.0001)  SEAICE_READPARMS: opening data.seaice
(PID.TID 0000.0001)  OPEN_COPY_DATA_FILE: opening file data.seaice
(PID.TID 0000.0001) // =======================================================
(PID.TID 0000.0001) // Parameter file "data.seaice"
(PID.TID 0000.0001) // =======================================================
(PID.TID 0000.0001) ># SEAICE parameters
(PID.TID 0000.0001) > &SEAICE_PARM01
(PID.TID 0000.0001) >      SEAICEuseTILT=.FALSE.,
(PID.TID 0000.0001) >      SEAICEpresH0=2.,
(PID.TID 0000.0001) >      SEAICEpresPow0=1,
(PID.TID 0000.0001) >      SEAICEpresPow1=3,
(PID.TID 0000.0001) >      SEAICE_multDim=1,
(PID.TID 0000.0001) >      SEAICErestoreUnderIce=.TRUE.,
(PID.TID 0000.0001) >      SEAICE_area_max=0.95,
(PID.TID 0000.0001) >#for backward compatibility (before 2011 june 19, those were the defaults)
(PID.TID 0000.0001) >#     SEAICE_area_floor=0.15,
(PID.TID 0000.0001) >#     SEAICE_area_reg=0.15,
(PID.TID 0000.0001) >      SEAICE_salt0=4.,
(PID.TID 0000.0001) ># for long time step:
(PID.TID 0000.0001) >#      SEAICE_deltaTevp   = 720.,
(PID.TID 0000.0001) ># for regular time step:
(PID.TID 0000.0001) >      SEAICE_deltaTevp   = 60.,
(PID.TID 0000.0001) ># for lsr:
(PID.TID 0000.0001) >#      LSR_ERROR          = 2.e-4,
(PID.TID 0000.0001) >      SEAICEuseDYNAMICS  = .TRUE.,
(PID.TID 0000.0001) ># BAD OPTION -- DO NOT USE -- SEAICE_maskRHS     = .TRUE.,
(PID.TID 0000.0001) >      MIN_ATEMP          = -40.,
(PID.TID 0000.0001) >      MIN_TICE           = -40.,
(PID.TID 0000.0001) >      SEAICEadvScheme    = 30,
(PID.TID 0000.0001) >      SEAICEuseFluxForm = .TRUE.,
(PID.TID 0000.0001) >      SEAICEadvSnow      = .TRUE.,
(PID.TID 0000.0001) >#      SEAICEadvSalt      = .TRUE.,
(PID.TID 0000.0001) >      SEAICEdiffKhHeff   = 400.,
(PID.TID 0000.0001) >      SEAICEdiffKhArea   = 400.,
(PID.TID 0000.0001) >      SEAICEdiffKhSnow   = 400.,
(PID.TID 0000.0001) >#      SEAICEdiffKhSalt   = 400.,
(PID.TID 0000.0001) >      SEAICEuseFlooding  = .TRUE.,
(PID.TID 0000.0001) >      SEAICE_mcPheePiston= 3.858024691358025E-05,
(PID.TID 0000.0001) >      SEAICE_frazilFrac  = 1.,
(PID.TID 0000.0001) >      SEAICE_mcPheeTaper = 0.,
(PID.TID 0000.0001) >      SEAICE_areaLossFormula=2,
(PID.TID 0000.0001) >      SEAICEheatConsFix  = .TRUE.,
(PID.TID 0000.0001) >      SEAICE_tempFrz0    = -1.96,
(PID.TID 0000.0001) >      SEAICE_dTempFrz_dS = 0.,
(PID.TID 0000.0001) >      SEAICEuseMetricTerms = .TRUE.,
(PID.TID 0000.0001) >      SEAICE_no_slip     = .FALSE.,
(PID.TID 0000.0001) >      SEAICE_clipVelocities = .TRUE.,
(PID.TID 0000.0001) >#take 33% out of (1-albedo)
(PID.TID 0000.0001) >      SEAICE_dryIceAlb   = 0.84,
(PID.TID 0000.0001) >      SEAICE_wetIceAlb   = 0.78,
(PID.TID 0000.0001) >      SEAICE_drySnowAlb  = 0.90,
(PID.TID 0000.0001) >      SEAICE_wetSnowAlb  = 0.8 ,
(PID.TID 0000.0001) >#default albedos
(PID.TID 0000.0001) >      SEAICE_dryIceAlb_south   = 0.75,
(PID.TID 0000.0001) >      SEAICE_wetIceAlb_south   = 0.66,
(PID.TID 0000.0001) >      SEAICE_drySnowAlb_south  = 0.84,
(PID.TID 0000.0001) >      SEAICE_wetSnowAlb_south  = 0.7,
(PID.TID 0000.0001) >#old defaults
(PID.TID 0000.0001) >      SEAICE_drag           = 0.002,
(PID.TID 0000.0001) >      SEAICE_waterDrag      = .00534499514091350826,
(PID.TID 0000.0001) >      SEAICEetaZmethod      = 0,
(PID.TID 0000.0001) >      SEAICEscaleSurfStress = .FALSE.,
(PID.TID 0000.0001) >      SEAICEaddSnowMass     = .FALSE.,
(PID.TID 0000.0001) >#initial conditions
(PID.TID 0000.0001) >      AreaFile = 'Area.0005184000',
(PID.TID 0000.0001) >      HeffFile = 'Heff.0005184000',
(PID.TID 0000.0001) > /
(PID.TID 0000.0001) >#
(PID.TID 0000.0001) > &SEAICE_PARM02
(PID.TID 0000.0001) > /
(PID.TID 0000.0001) >
(PID.TID 0000.0001) 
(PID.TID 0000.0001)  SEAICE_READPARMS: finished reading data.seaice
(PID.TID 0000.0001) SALT_PLUME_READPARMS: opening data.salt_plume
(PID.TID 0000.0001)  OPEN_COPY_DATA_FILE: opening file data.salt_plume
(PID.TID 0000.0001) // =======================================================
(PID.TID 0000.0001) // Parameter file "data.salt_plume"
(PID.TID 0000.0001) // =======================================================
(PID.TID 0000.0001) > &SALT_PLUME_PARM01
(PID.TID 0000.0001) > SPsalFRAC= 0.5D0,
(PID.TID 0000.0001) > /
(PID.TID 0000.0001) 
(PID.TID 0000.0001) SALT_PLUME_READPARMS: finished reading data.salt_plume
(PID.TID 0000.0001)  DIAGNOSTICS_READPARMS: opening data.diagnostics
(PID.TID 0000.0001)  OPEN_COPY_DATA_FILE: opening file data.diagnostics
(PID.TID 0000.0001) // =======================================================
(PID.TID 0000.0001) // Parameter file "data.diagnostics"
(PID.TID 0000.0001) // =======================================================
(PID.TID 0000.0001) ># Diagnostic Package Choices
(PID.TID 0000.0001) >#-----------------
(PID.TID 0000.0001) ># for each output-stream:
(PID.TID 0000.0001) >#  filename(n) : prefix of the output file name (only 8.c long) for outp.stream n
(PID.TID 0000.0001) >#  frequency(n):< 0 : write snap-shot output every multiple of |frequency| (iter)
(PID.TID 0000.0001) >#               > 0 : write time-average output every multiple of frequency (iter)
(PID.TID 0000.0001) >#  levels(:,n) : list of levels to write to file (Notes: declared as REAL)
(PID.TID 0000.0001) >#                 when this entry is missing, select all common levels of this list
(PID.TID 0000.0001) >#  fields(:,n) : list of diagnostics fields (8.c) (see "available_diagnostics" file
(PID.TID 0000.0001) >#                 for the list of all available diag. in this particular config)
(PID.TID 0000.0001) >#--------------------------------------------------------------------
(PID.TID 0000.0001) >#
(PID.TID 0000.0001) > &diagnostics_list
(PID.TID 0000.0001) >#
(PID.TID 0000.0001) >   dumpatlast = .TRUE.,
(PID.TID 0000.0001) >#---
(PID.TID 0000.0001) >  frequency(1) = 2635200.0,
(PID.TID 0000.0001) >   fields(1:25,1) = 'ETAN    ','SIarea  ','SIheff ','SIhsnow ',
(PID.TID 0000.0001) >#stuff that is not quite state variables (and may not be quite
(PID.TID 0000.0001) >#synchroneous) but are added here to reduce number of files
(PID.TID 0000.0001) >                 'DETADT2 ','PHIBOT  ','sIceLoad',
(PID.TID 0000.0001) >                 'MXLDEPTH','oceSPDep',
(PID.TID 0000.0001) >                 'SIatmQnt','SIatmFW ','oceQnet ','oceFWflx',
(PID.TID 0000.0001) >                 'oceTAUX ','oceTAUY ',
(PID.TID 0000.0001) >                 'ADVxHEFF','ADVyHEFF','DFxEHEFF','DFyEHEFF',
(PID.TID 0000.0001) >                 'ADVxSNOW','ADVySNOW','DFxESNOW','DFyESNOW',
(PID.TID 0000.0001) >                 'SIuice  ','SIvice  ',
(PID.TID 0000.0001) >   filename(1) = 'diags/state_2d_set1',
(PID.TID 0000.0001) >#---
(PID.TID 0000.0001) >  frequency(2) = 2635200.0,
(PID.TID 0000.0001) >   fields(1:3,2) = 'THETA   ','SALT    ',
(PID.TID 0000.0001) >#stuff that is not quite state variables (and may not be quite
(PID.TID 0000.0001) >#synchronous) but are added here to reduce file number
(PID.TID 0000.0001) >                 'DRHODR  ',
(PID.TID 0000.0001) >#                'KPPviscA','KPPdiffT','KPPdiffTS',
(PID.TID 0000.0001) >#                'GGL90TKE','GGL90Lmx','GGL90Prl',
(PID.TID 0000.0001) >#                'GGL90ArU','GGL90ArV','GGL90Kr ',
(PID.TID 0000.0001) >   filename(2) = 'diags/state_3d_set1',
(PID.TID 0000.0001) >#---
(PID.TID 0000.0001) >  frequency(3) = 2635200.0,
(PID.TID 0000.0001) >   fields(1:5,3) = 'UVELMASS','VVELMASS','WVELMASS',
(PID.TID 0000.0001) >                 'GM_PsiX ','GM_PsiY ',
(PID.TID 0000.0001) >#uvel is approximately uvelmass divided by initial hfac, so we dont output the former
(PID.TID 0000.0001) >#                'UVEL    ','VVEL    ','WVEL     ',
(PID.TID 0000.0001) >#full 3D temperature fluxes : 'DFxE_TH ','DFyE_TH ','DFrE_TH ','DFrI_TH ','ADVx_TH ','ADVy_TH ','ADVr_TH ',
(PID.TID 0000.0001) >#but for present computations I only need the vertically integrated horizontal components (see trsp_3d_set2)
(PID.TID 0000.0001) >   filename(3) = 'diags/trsp_3d_set1',
(PID.TID 0000.0001) >#---
(PID.TID 0000.0001) >  frequency(4) = 2635200.0,
(PID.TID 0000.0001) >   fields(1:8,4) = 'DFxE_TH ','DFyE_TH ','ADVx_TH ','ADVy_TH ',
(PID.TID 0000.0001) >                 'DFxE_SLT','DFyE_SLT','ADVx_SLT','ADVy_SLT',
(PID.TID 0000.0001) >   filename(4) = 'diags/trsp_3d_set2',
(PID.TID 0000.0001) >#vertically integrate fields we only use to compute vertically integr.
(PID.TID 0000.0001) >#meridional transports (also omit vertical transports, both to save space)
(PID.TID 0000.0001) >#---
(PID.TID 0000.0001) >  frequency(5) = -2635200.0,
(PID.TID 0000.0001) >   fields(1:6,5) = 'ETAN    ','SIheff  ','SIhsnow ',
(PID.TID 0000.0001) >                 'SIarea  ','sIceLoad','PHIBOT  ',
(PID.TID 0000.0001) >   filename(5) = 'diags/budg2d_snap_set1',
(PID.TID 0000.0001) >   timePhase(5)= 0.,
(PID.TID 0000.0001) >   fileFlags(5) = 'D       ',
(PID.TID 0000.0001) >#---
(PID.TID 0000.0001) >  frequency(6) = -2635200.0,
(PID.TID 0000.0001) >   fields(1:2,6) = 'THETA   ','SALT    ',
(PID.TID 0000.0001) >   filename(6) = 'diags/budg2d_snap_set2',
(PID.TID 0000.0001) >   timePhase(6)= 0.,
(PID.TID 0000.0001) >   fileFlags(6) = 'DI      ',
(PID.TID 0000.0001) >#---
(PID.TID 0000.0001) >  frequency(7) = 2635200.0,
(PID.TID 0000.0001) >   fields(1:8,7) = 'oceFWflx','SIatmFW ','TFLUX   ','SItflux ',
(PID.TID 0000.0001) >                   'SFLUX   ','oceQsw  ','oceSPflx','gDICsurf',
(PID.TID 0000.0001) >   filename(7) = 'diags/budg2d_zflux_set1',
(PID.TID 0000.0001) >   fileFlags(7) = 'D       ',
(PID.TID 0000.0001) >#---
(PID.TID 0000.0001) >  frequency(8) = 2635200.0,
(PID.TID 0000.0001) >   fields(1:13,8) ='UVELMASS','VVELMASS',
(PID.TID 0000.0001) >                 'ADVx_TH ','ADVy_TH ','DFxE_TH ','DFyE_TH ',
(PID.TID 0000.0001) >                 'ADVx_SLT','ADVy_SLT','DFxE_SLT','DFyE_SLT',
(PID.TID 0000.0001) >#the following are not transports but tendencies
(PID.TID 0000.0001) >                 'oceSPtnd','AB_gT   ','AB_gS   ',
(PID.TID 0000.0001) >   filename(8) = 'diags/budg2d_hflux_set2',
(PID.TID 0000.0001) >   fileFlags(8) = 'DI      ',
(PID.TID 0000.0001) >#---
(PID.TID 0000.0001) >  frequency(9) = 2635200.0,
(PID.TID 0000.0001) >   fields(1:8,9) ='ADVxHEFF','ADVyHEFF','DFxEHEFF','DFyEHEFF',
(PID.TID 0000.0001) >                 'ADVxSNOW','ADVySNOW','DFxESNOW','DFyESNOW',
(PID.TID 0000.0001) >   filename(9) = 'diags/budg2d_hflux_set1',
(PID.TID 0000.0001) >   fileFlags(9) = 'D       ',
(PID.TID 0000.0001) >#---
(PID.TID 0000.0001) ># this one is important because it activates the vertical advection diags
(PID.TID 0000.0001) >#  frequency(10) = 2635200.0,
(PID.TID 0000.0001) >#   fields(1:7,10) = 'ADVr_TH ','DFrE_TH ','DFrI_TH ',
(PID.TID 0000.0001) >#                  'ADVr_SLT','DFrE_SLT','DFrI_SLT',
(PID.TID 0000.0001) >#                  'WVELMASS',
(PID.TID 0000.0001) >#   filename(10) = 'diags/budg2d_zflux_set3_11',
(PID.TID 0000.0001) >#   levels(1, 10)= 11.,
(PID.TID 0000.0001) >#   fileFlags(10) = 'D       ',
(PID.TID 0000.0001) >#---
(PID.TID 0000.0001) >  frequency(11) = 2635200.0,
(PID.TID 0000.0001) >   fields(1:10,11) ='SRELAX  ','TRELAX  ','WTHMASS ','WSLTMASS',
(PID.TID 0000.0001) >                 'oceSflux','oceQnet ','SIatmQnt',
(PID.TID 0000.0001) >                 'SIaaflux','SIsnPrcp','SIacSubl',
(PID.TID 0000.0001) >   filename(11) = 'diags/budg2d_zflux_set2',
(PID.TID 0000.0001) >   fileFlags(11) = 'D       ',
(PID.TID 0000.0001) >#---
(PID.TID 0000.0001) >#  frequency(12) = 2635200.0,
(PID.TID 0000.0001) >#   fields(1:13,12) ='UVELMASS','VVELMASS',
(PID.TID 0000.0001) >#                 'ADVx_TH ','ADVy_TH ','DFxE_TH ','DFyE_TH ',
(PID.TID 0000.0001) >#                 'ADVx_SLT','ADVy_SLT','DFxE_SLT','DFyE_SLT',
(PID.TID 0000.0001) >#                 'oceSPtnd','AB_gT   ','AB_gS   ',
(PID.TID 0000.0001) >#   filename(12) = 'diags/budg2d_hflux_set3_11',
(PID.TID 0000.0001) >#   levels(1:40,12) = 11.,12.,13.,14.,15.,16.,17.,18.,19.,20.,
(PID.TID 0000.0001) >#                     21.,22.,23.,24.,25.,26.,27.,28.,29.,30.,
(PID.TID 0000.0001) >#                     31.,32.,33.,34.,35.,36.,37.,38.,39.,40.,
(PID.TID 0000.0001) >#                     41.,42.,43.,44.,45.,46.,47.,48.,49.,50.,
(PID.TID 0000.0001) >#   fileFlags(12) = 'DI      ',
(PID.TID 0000.0001) >#---
(PID.TID 0000.0001) >#  frequency(13) = -2635200.0,
(PID.TID 0000.0001) >#   fields(1:2,13) = 'THETA   ','SALT    ',
(PID.TID 0000.0001) >#   filename(13) = 'diags/budg2d_snap_set3_11',
(PID.TID 0000.0001) >#   timePhase(13)= 0.,
(PID.TID 0000.0001) >#   levels(1:40,13) = 11.,12.,13.,14.,15.,16.,17.,18.,19.,20.,
(PID.TID 0000.0001) >#                     21.,22.,23.,24.,25.,26.,27.,28.,29.,30.,
(PID.TID 0000.0001) >#                     31.,32.,33.,34.,35.,36.,37.,38.,39.,40.,
(PID.TID 0000.0001) >#                     41.,42.,43.,44.,45.,46.,47.,48.,49.,50.,
(PID.TID 0000.0001) >#   fileFlags(13) = 'DI      ',
(PID.TID 0000.0001) >#---
(PID.TID 0000.0001) >  frequency(14) = 2635200.0,
(PID.TID 0000.0001) >   fields(1:8,14) = 'DFxE_TH ','DFyE_TH ','ADVx_TH ','ADVy_TH ',
(PID.TID 0000.0001) >                 'DFxE_SLT','DFyE_SLT','ADVx_SLT','ADVy_SLT',
(PID.TID 0000.0001) >   filename(14) = 'diags/trsp_2d_set1',
(PID.TID 0000.0001) >#vertically integrate fields we only use to compute vertically integr.
(PID.TID 0000.0001) >#meridional transports (also omit vertical transports, both to save space)
(PID.TID 0000.0001) >   fileFlags(14) = ' I      ',
(PID.TID 0000.0001) >#---
(PID.TID 0000.0001) >  frequency(15) = 2635200.0,
(PID.TID 0000.0001) >   fields(1:3,15) = 'RHOAnoma','PHIHYD  ','oceSPtnd',
(PID.TID 0000.0001) >   filename(15) = 'diags/state_3d_set2',
(PID.TID 0000.0001) >#---
(PID.TID 0000.0001) >  frequency(16) = 2635200.0,
(PID.TID 0000.0001) >   fields(1:7,16) = 'ADVr_TH ','DFrE_TH ','DFrI_TH ',
(PID.TID 0000.0001) >        'ADVr_SLT','DFrE_SLT','DFrI_SLT','WVELMASS',
(PID.TID 0000.0001) >   filename(16) = 'diags/trsp_3d_set3',
(PID.TID 0000.0001) >#---
(PID.TID 0000.0001) >  frequency(17) = 2635200.0,
(PID.TID 0000.0001) >   fields(1:7,17) = 'TFLUX   ','SItflux ','SFLUX   ',
(PID.TID 0000.0001) >        'oceQsw  ','oceSPflx','SIsnPrcp','SIacSubl',
(PID.TID 0000.0001) >   filename(17) = 'diags/state_2d_set2',
(PID.TID 0000.0001) >#---
(PID.TID 0000.0001) >  frequency(18) = -2635200.0,
(PID.TID 0000.0001) >   fields(1:3,18) = 'SALT    ','TRAC01  ','TRAC06  ',
(PID.TID 0000.0001) >   timePhase(18)= 0.,
(PID.TID 0000.0001) >   filename(18) = 'diags/state_3d_snap_set1',
(PID.TID 0000.0001) >#---
(PID.TID 0000.0001) >  frequency(19) = 2635200.0,
(PID.TID 0000.0001) >   fields(1:8,19) = 'TRAC01  ','ADVxTr01','ADVyTr01','ADVrTr01',
(PID.TID 0000.0001) >        'DFxETr01','DFyETr01','DFrETr01','DFrITr01',
(PID.TID 0000.0001) >   filename(19) = 'diags/dic_physics',
(PID.TID 0000.0001) >#---
(PID.TID 0000.0001) >  frequency(20) = 2635200.0,
(PID.TID 0000.0001) >   fields(1,20) = 'gDAR01  ',
(PID.TID 0000.0001) >  filename(20) = 'diags/dic_biology',
(PID.TID 0000.0001) >#---
(PID.TID 0000.0001) >  filename(21) = 'diags/CO2_FLUX_BUDGET_DEPTH',
(PID.TID 0000.0001) >   frequency(21) = 2635200.0,
(PID.TID 0000.0001) >   fields(1,21) = 'TRAC01  ','THETA   ','SALT    ',
(PID.TID 0000.0001) >                  'TRAC18  ','TRAC05  ','TRAC07  ',
(PID.TID 0000.0001) >#---
(PID.TID 0000.0001) >  filename(22) = 'diags/CO2_FLUX_BUDGET_SURF',
(PID.TID 0000.0001) >   frequency(22) = 2635200.0,
(PID.TID 0000.0001) >   levels(1,22) = 1.,
(PID.TID 0000.0001) >   fields(1,22) = 'fluxCO2 ','gDICsurf',
(PID.TID 0000.0001) >                  'surfpCO2',
(PID.TID 0000.0001) >#---
(PID.TID 0000.0001) >  frequency(23) = 2635200.0,
(PID.TID 0000.0001) >   fields(1:8,23) = 'TRAC06  ','ADVxTr06','ADVyTr06','ADVrTr06',
(PID.TID 0000.0001) >        'DFxETr06','DFyETr06','DFrETr06','DFrITr06',
(PID.TID 0000.0001) >   filename(23) = 'diags/fe_physics',
(PID.TID 0000.0001) >#---
(PID.TID 0000.0001) >  frequency(24) = 2635200.0,
(PID.TID 0000.0001) >   fields(1:5,24) = 'C_Fe    ','S_Fe    ','gDAR06  ','sedFe   ',
(PID.TID 0000.0001) >                    'freeFe  ',
(PID.TID 0000.0001) >   filename(24) = 'diags/fe_darwin_3d',
(PID.TID 0000.0001) >#---
(PID.TID 0000.0001) >  frequency(25) = 2635200.0,
(PID.TID 0000.0001) >   fields(1,25) = 'sfcSolFe',
(PID.TID 0000.0001) >   filename(25) = 'diags/fe_darwin_2d',
(PID.TID 0000.0001) >#---
(PID.TID 0000.0001) >
(PID.TID 0000.0001) > /
(PID.TID 0000.0001) >
(PID.TID 0000.0001) > /
(PID.TID 0000.0001) >#
(PID.TID 0000.0001) >#
(PID.TID 0000.0001) ># Parameter for Diagnostics of per level statistics:
(PID.TID 0000.0001) >#-----------------
(PID.TID 0000.0001) ># for each output-stream:
(PID.TID 0000.0001) >#  stat_fname(n) : prefix of the output file name (only 8.c long) for outp.stream n
(PID.TID 0000.0001) >#  stat_freq(n):< 0 : write snap-shot output every |stat_freq| seconds
(PID.TID 0000.0001) >#               > 0 : write time-average output every stat_freq seconds
(PID.TID 0000.0001) >#  stat_phase(n)    : write at time = stat_phase + multiple of |stat_freq|
(PID.TID 0000.0001) >#  stat_region(:,n) : list of "regions" (default: 1 region only=global)
(PID.TID 0000.0001) >#  stat_fields(:,n) : list of diagnostics fields (8.c) (see "available_diagnostics.log"
(PID.TID 0000.0001) >#                 file for the list of all available diag. in this particular config)
(PID.TID 0000.0001) >#-----------------
(PID.TID 0000.0001) > &DIAG_STATIS_PARMS
(PID.TID 0000.0001) ># diagSt_regMaskFile='basin_masks_eccollc_90x50.bin',
(PID.TID 0000.0001) ># nSetRegMskFile=1,
(PID.TID 0000.0001) ># set_regMask(1)= 1,  1,  1,  1,  1,  1,  1,  1,  1,
(PID.TID 0000.0001) >#                 1,  1,  1,  1,  1,  1,  1,  1
(PID.TID 0000.0001) ># val_regMask(1)= 1., 2., 3., 4., 5., 6., 7., 8., 9.,
(PID.TID 0000.0001) >#                10.,11.,12.,13.,14.,15.,16.,17.
(PID.TID 0000.0001) >##---
(PID.TID 0000.0001) ># stat_fields(1,1)= 'ETAN    ','ETANSQ  ','DETADT2 ',
(PID.TID 0000.0001) >#                   'UVEL    ','VVEL    ','WVEL    ',
(PID.TID 0000.0001) >#                   'THETA   ','SALT    ',
(PID.TID 0000.0001) >#    stat_fname(1)= 'dynStDiag',
(PID.TID 0000.0001) >#     stat_freq(1)= 3153600.,
(PID.TID 0000.0001) ># stat_region(1,1)=  1, 2, 3, 4, 5, 6, 7, 8, 9,
(PID.TID 0000.0001) >#                   10,11,12,13,14,15,16,17
(PID.TID 0000.0001) >##---
(PID.TID 0000.0001) ># stat_fields(1,2)= 'oceTAUX ','oceTAUY ',
(PID.TID 0000.0001) >#                   'surForcT','surForcS','TFLUX   ','SFLUX   ',
(PID.TID 0000.0001) >#                   'oceQnet ','oceSflux','oceFWflx',
(PID.TID 0000.0001) >#    stat_fname(2)= 'surfStDiag',
(PID.TID 0000.0001) >#     stat_freq(2)= 3153600.,
(PID.TID 0000.0001) ># stat_region(1,2)=  1, 2, 3, 4, 5, 6, 7, 8, 9,
(PID.TID 0000.0001) >#                   10,11,12,13,14,15,16,17
(PID.TID 0000.0001) > /
(PID.TID 0000.0001) 
(PID.TID 0000.0001) S/R DIAGNOSTICS_READPARMS, read namelist "diagnostics_list": start
(PID.TID 0000.0001) S/R DIAGNOSTICS_READPARMS, read namelist "diagnostics_list": OK
(PID.TID 0000.0001) S/R DIAGNOSTICS_READPARMS, read namelist "DIAG_STATIS_PARMS": start
(PID.TID 0000.0001) S/R DIAGNOSTICS_READPARMS, read namelist "DIAG_STATIS_PARMS": OK
(PID.TID 0000.0001)  DIAGNOSTICS_READPARMS: global parameter summary:
(PID.TID 0000.0001)  dumpAtLast = /* always write time-ave diags at the end */
(PID.TID 0000.0001)                   T
(PID.TID 0000.0001)     ;
(PID.TID 0000.0001)  diag_mnc =   /* write NetCDF output files */
(PID.TID 0000.0001)                   F
(PID.TID 0000.0001)     ;
(PID.TID 0000.0001)  useMissingValue = /* put MissingValue where mask = 0 */
(PID.TID 0000.0001)                   F
(PID.TID 0000.0001)     ;
(PID.TID 0000.0001)  diagCG_maxIters = /* max number of iters in diag_cg2d */
(PID.TID 0000.0001)                     300
(PID.TID 0000.0001)     ;
(PID.TID 0000.0001)  diagCG_resTarget = /* residual target for diag_cg2d */
(PID.TID 0000.0001)                 1.000000000000000E-07
(PID.TID 0000.0001)     ;
(PID.TID 0000.0001)  diagCG_pcOffDFac = /* preconditioner off-diagonal factor */
(PID.TID 0000.0001)                 9.611687812379854E-01
(PID.TID 0000.0001)     ;
(PID.TID 0000.0001) -----------------------------------------------------
(PID.TID 0000.0001)  DIAGNOSTICS_READPARMS: active diagnostics summary:
(PID.TID 0000.0001) -----------------------------------------------------
(PID.TID 0000.0001) Creating Output Stream: diags/state_2d_set1
(PID.TID 0000.0001) Output Frequency:    2635200.000000 ; Phase:           0.000000
(PID.TID 0000.0001)  Averaging Freq.:    2635200.000000 , Phase:           0.000000 , Cycle:   1
(PID.TID 0000.0001)  missing value: -9.990000000000E+02
(PID.TID 0000.0001)  Levels:    will be set later
(PID.TID 0000.0001)  Fields:    ETAN     SIarea   SIheff   SIhsnow  DETADT2  PHIBOT   sIceLoad MXLDEPTH oceSPDep SIatmQnt
(PID.TID 0000.0001)  Fields:    SIatmFW  oceQnet  oceFWflx oceTAUX  oceTAUY  ADVxHEFF ADVyHEFF DFxEHEFF DFyEHEFF ADVxSNOW
(PID.TID 0000.0001)  Fields:    ADVySNOW DFxESNOW DFyESNOW SIuice   SIvice
(PID.TID 0000.0001) Creating Output Stream: diags/state_3d_set1
(PID.TID 0000.0001) Output Frequency:    2635200.000000 ; Phase:           0.000000
(PID.TID 0000.0001)  Averaging Freq.:    2635200.000000 , Phase:           0.000000 , Cycle:   1
(PID.TID 0000.0001)  missing value: -9.990000000000E+02
(PID.TID 0000.0001)  Levels:    will be set later
(PID.TID 0000.0001)  Fields:    THETA    SALT     DRHODR
(PID.TID 0000.0001) Creating Output Stream: diags/trsp_3d_set1
(PID.TID 0000.0001) Output Frequency:    2635200.000000 ; Phase:           0.000000
(PID.TID 0000.0001)  Averaging Freq.:    2635200.000000 , Phase:           0.000000 , Cycle:   1
(PID.TID 0000.0001)  missing value: -9.990000000000E+02
(PID.TID 0000.0001)  Levels:    will be set later
(PID.TID 0000.0001)  Fields:    UVELMASS VVELMASS WVELMASS GM_PsiX  GM_PsiY
(PID.TID 0000.0001) Creating Output Stream: diags/trsp_3d_set2
(PID.TID 0000.0001) Output Frequency:    2635200.000000 ; Phase:           0.000000
(PID.TID 0000.0001)  Averaging Freq.:    2635200.000000 , Phase:           0.000000 , Cycle:   1
(PID.TID 0000.0001)  missing value: -9.990000000000E+02
(PID.TID 0000.0001)  Levels:    will be set later
(PID.TID 0000.0001)  Fields:    DFxE_TH  DFyE_TH  ADVx_TH  ADVy_TH  DFxE_SLT DFyE_SLT ADVx_SLT ADVy_SLT
(PID.TID 0000.0001) Creating Output Stream: diags/budg2d_snap_set1
(PID.TID 0000.0001) Output Frequency:   -2635200.000000 ; Phase:           0.000000
(PID.TID 0000.0001)  Averaging Freq.:          0.000000 , Phase:           0.000000 , Cycle:   1
(PID.TID 0000.0001)  missing value: -9.990000000000E+02 ; F-Flags="D       "
(PID.TID 0000.0001)  Levels:    will be set later
(PID.TID 0000.0001)  Fields:    ETAN     SIheff   SIhsnow  SIarea   sIceLoad PHIBOT
(PID.TID 0000.0001) Creating Output Stream: diags/budg2d_snap_set2
(PID.TID 0000.0001) Output Frequency:   -2635200.000000 ; Phase:           0.000000
(PID.TID 0000.0001)  Averaging Freq.:          0.000000 , Phase:           0.000000 , Cycle:   1
(PID.TID 0000.0001)  missing value: -9.990000000000E+02 ; F-Flags="DI      "
(PID.TID 0000.0001)  Cumulate all Levels (to be set later)
(PID.TID 0000.0001)  Fields:    THETA    SALT
(PID.TID 0000.0001) Creating Output Stream: diags/budg2d_zflux_set1
(PID.TID 0000.0001) Output Frequency:    2635200.000000 ; Phase:           0.000000
(PID.TID 0000.0001)  Averaging Freq.:    2635200.000000 , Phase:           0.000000 , Cycle:   1
(PID.TID 0000.0001)  missing value: -9.990000000000E+02 ; F-Flags="D       "
(PID.TID 0000.0001)  Levels:    will be set later
(PID.TID 0000.0001)  Fields:    oceFWflx SIatmFW  TFLUX    SItflux  SFLUX    oceQsw   oceSPflx gDICsurf
(PID.TID 0000.0001) Creating Output Stream: diags/budg2d_hflux_set2
(PID.TID 0000.0001) Output Frequency:    2635200.000000 ; Phase:           0.000000
(PID.TID 0000.0001)  Averaging Freq.:    2635200.000000 , Phase:           0.000000 , Cycle:   1
(PID.TID 0000.0001)  missing value: -9.990000000000E+02 ; F-Flags="DI      "
(PID.TID 0000.0001)  Cumulate all Levels (to be set later)
(PID.TID 0000.0001)  Fields:    UVELMASS VVELMASS ADVx_TH  ADVy_TH  DFxE_TH  DFyE_TH  ADVx_SLT ADVy_SLT DFxE_SLT DFyE_SLT
(PID.TID 0000.0001)  Fields:    oceSPtnd AB_gT    AB_gS
(PID.TID 0000.0001) Creating Output Stream: diags/budg2d_hflux_set1
(PID.TID 0000.0001) Output Frequency:    2635200.000000 ; Phase:           0.000000
(PID.TID 0000.0001)  Averaging Freq.:    2635200.000000 , Phase:           0.000000 , Cycle:   1
(PID.TID 0000.0001)  missing value: -9.990000000000E+02 ; F-Flags="D       "
(PID.TID 0000.0001)  Levels:    will be set later
(PID.TID 0000.0001)  Fields:    ADVxHEFF ADVyHEFF DFxEHEFF DFyEHEFF ADVxSNOW ADVySNOW DFxESNOW DFyESNOW
(PID.TID 0000.0001) Creating Output Stream: diags/budg2d_zflux_set2
(PID.TID 0000.0001) Output Frequency:    2635200.000000 ; Phase:           0.000000
(PID.TID 0000.0001)  Averaging Freq.:    2635200.000000 , Phase:           0.000000 , Cycle:   1
(PID.TID 0000.0001)  missing value: -9.990000000000E+02 ; F-Flags="D       "
(PID.TID 0000.0001)  Levels:    will be set later
(PID.TID 0000.0001)  Fields:    SRELAX   TRELAX   WTHMASS  WSLTMASS oceSflux oceQnet  SIatmQnt SIaaflux SIsnPrcp SIacSubl
(PID.TID 0000.0001) Creating Output Stream: diags/trsp_2d_set1
(PID.TID 0000.0001) Output Frequency:    2635200.000000 ; Phase:           0.000000
(PID.TID 0000.0001)  Averaging Freq.:    2635200.000000 , Phase:           0.000000 , Cycle:   1
(PID.TID 0000.0001)  missing value: -9.990000000000E+02 ; F-Flags=" I      "
(PID.TID 0000.0001)  Cumulate all Levels (to be set later)
(PID.TID 0000.0001)  Fields:    DFxE_TH  DFyE_TH  ADVx_TH  ADVy_TH  DFxE_SLT DFyE_SLT ADVx_SLT ADVy_SLT
(PID.TID 0000.0001) Creating Output Stream: diags/state_3d_set2
(PID.TID 0000.0001) Output Frequency:    2635200.000000 ; Phase:           0.000000
(PID.TID 0000.0001)  Averaging Freq.:    2635200.000000 , Phase:           0.000000 , Cycle:   1
(PID.TID 0000.0001)  missing value: -9.990000000000E+02
(PID.TID 0000.0001)  Levels:    will be set later
(PID.TID 0000.0001)  Fields:    RHOAnoma PHIHYD   oceSPtnd
(PID.TID 0000.0001) Creating Output Stream: diags/trsp_3d_set3
(PID.TID 0000.0001) Output Frequency:    2635200.000000 ; Phase:           0.000000
(PID.TID 0000.0001)  Averaging Freq.:    2635200.000000 , Phase:           0.000000 , Cycle:   1
(PID.TID 0000.0001)  missing value: -9.990000000000E+02
(PID.TID 0000.0001)  Levels:    will be set later
(PID.TID 0000.0001)  Fields:    ADVr_TH  DFrE_TH  DFrI_TH  ADVr_SLT DFrE_SLT DFrI_SLT WVELMASS
(PID.TID 0000.0001) Creating Output Stream: diags/state_2d_set2
(PID.TID 0000.0001) Output Frequency:    2635200.000000 ; Phase:           0.000000
(PID.TID 0000.0001)  Averaging Freq.:    2635200.000000 , Phase:           0.000000 , Cycle:   1
(PID.TID 0000.0001)  missing value: -9.990000000000E+02
(PID.TID 0000.0001)  Levels:    will be set later
(PID.TID 0000.0001)  Fields:    TFLUX    SItflux  SFLUX    oceQsw   oceSPflx SIsnPrcp SIacSubl
(PID.TID 0000.0001) Creating Output Stream: diags/state_3d_snap_set1
(PID.TID 0000.0001) Output Frequency:   -2635200.000000 ; Phase:           0.000000
(PID.TID 0000.0001)  Averaging Freq.:          0.000000 , Phase:           0.000000 , Cycle:   1
(PID.TID 0000.0001)  missing value: -9.990000000000E+02
(PID.TID 0000.0001)  Levels:    will be set later
(PID.TID 0000.0001)  Fields:    SALT     TRAC01   TRAC06
(PID.TID 0000.0001) Creating Output Stream: diags/dic_physics
(PID.TID 0000.0001) Output Frequency:    2635200.000000 ; Phase:           0.000000
(PID.TID 0000.0001)  Averaging Freq.:    2635200.000000 , Phase:           0.000000 , Cycle:   1
(PID.TID 0000.0001)  missing value: -9.990000000000E+02
(PID.TID 0000.0001)  Levels:    will be set later
(PID.TID 0000.0001)  Fields:    TRAC01   ADVxTr01 ADVyTr01 ADVrTr01 DFxETr01 DFyETr01 DFrETr01 DFrITr01
(PID.TID 0000.0001) Creating Output Stream: diags/dic_biology
(PID.TID 0000.0001) Output Frequency:    2635200.000000 ; Phase:           0.000000
(PID.TID 0000.0001)  Averaging Freq.:    2635200.000000 , Phase:           0.000000 , Cycle:   1
(PID.TID 0000.0001)  missing value: -9.990000000000E+02
(PID.TID 0000.0001)  Levels:    will be set later
(PID.TID 0000.0001)  Fields:    gDAR01
(PID.TID 0000.0001) Creating Output Stream: diags/CO2_FLUX_BUDGET_DEPTH
(PID.TID 0000.0001) Output Frequency:    2635200.000000 ; Phase:           0.000000
(PID.TID 0000.0001)  Averaging Freq.:    2635200.000000 , Phase:           0.000000 , Cycle:   1
(PID.TID 0000.0001)  missing value: -9.990000000000E+02
(PID.TID 0000.0001)  Levels:    will be set later
(PID.TID 0000.0001)  Fields:    TRAC01   THETA    SALT     TRAC18   TRAC05   TRAC07
(PID.TID 0000.0001) Creating Output Stream: diags/CO2_FLUX_BUDGET_SURF
(PID.TID 0000.0001) Output Frequency:    2635200.000000 ; Phase:           0.000000
(PID.TID 0000.0001)  Averaging Freq.:    2635200.000000 , Phase:           0.000000 , Cycle:   1
(PID.TID 0000.0001)  missing value: -9.990000000000E+02
(PID.TID 0000.0001)  Levels:       1.
(PID.TID 0000.0001)  Fields:    fluxCO2  gDICsurf surfpCO2
(PID.TID 0000.0001) Creating Output Stream: diags/fe_physics
(PID.TID 0000.0001) Output Frequency:    2635200.000000 ; Phase:           0.000000
(PID.TID 0000.0001)  Averaging Freq.:    2635200.000000 , Phase:           0.000000 , Cycle:   1
(PID.TID 0000.0001)  missing value: -9.990000000000E+02
(PID.TID 0000.0001)  Levels:    will be set later
(PID.TID 0000.0001)  Fields:    TRAC06   ADVxTr06 ADVyTr06 ADVrTr06 DFxETr06 DFyETr06 DFrETr06 DFrITr06
(PID.TID 0000.0001) Creating Output Stream: diags/fe_darwin_3d
(PID.TID 0000.0001) Output Frequency:    2635200.000000 ; Phase:           0.000000
(PID.TID 0000.0001)  Averaging Freq.:    2635200.000000 , Phase:           0.000000 , Cycle:   1
(PID.TID 0000.0001)  missing value: -9.990000000000E+02
(PID.TID 0000.0001)  Levels:    will be set later
(PID.TID 0000.0001)  Fields:    C_Fe     S_Fe     gDAR06   sedFe    freeFe
(PID.TID 0000.0001) Creating Output Stream: diags/fe_darwin_2d
(PID.TID 0000.0001) Output Frequency:    2635200.000000 ; Phase:           0.000000
(PID.TID 0000.0001)  Averaging Freq.:    2635200.000000 , Phase:           0.000000 , Cycle:   1
(PID.TID 0000.0001)  missing value: -9.990000000000E+02
(PID.TID 0000.0001)  Levels:    will be set later
(PID.TID 0000.0001)  Fields:    sfcSolFe
(PID.TID 0000.0001) -----------------------------------------------------
(PID.TID 0000.0001)  DIAGNOSTICS_READPARMS: statistics diags. summary:
(PID.TID 0000.0001) -----------------------------------------------------
(PID.TID 0000.0001) 
(PID.TID 0000.0001) SET_PARMS: done
(PID.TID 0000.0001) Enter INI_VERTICAL_GRID: setInterFDr=    T ; setCenterDr=    F
(PID.TID 0000.0001) %MON XC_max                       =   3.5859375000000E+02
(PID.TID 0000.0001) %MON XC_min                       =   1.4062500000000E+00
(PID.TID 0000.0001) %MON XC_mean                      =   1.8000000000000E+02
(PID.TID 0000.0001) %MON XC_sd                        =   1.0391987692599E+02
(PID.TID 0000.0001) %MON XG_max                       =   3.5718750000000E+02
(PID.TID 0000.0001) %MON XG_min                       =   0.0000000000000E+00
(PID.TID 0000.0001) %MON XG_mean                      =   1.7859375000000E+02
(PID.TID 0000.0001) %MON XG_sd                        =   1.0391987692599E+02
(PID.TID 0000.0001) %MON DXC_max                      =   3.1259246843155E+05
(PID.TID 0000.0001) %MON DXC_min                      =   7.6737143816223E+03
(PID.TID 0000.0001) %MON DXC_mean                     =   1.9908248704234E+05
(PID.TID 0000.0001) %MON DXC_sd                       =   9.6190602240068E+04
(PID.TID 0000.0001) %MON DXF_max                      =   3.1259246843155E+05
(PID.TID 0000.0001) %MON DXF_min                      =   7.6737143816223E+03
(PID.TID 0000.0001) %MON DXF_mean                     =   1.9908248704234E+05
(PID.TID 0000.0001) %MON DXF_sd                       =   9.6190602240068E+04
(PID.TID 0000.0001) %MON DXG_max                      =   3.1268664380261E+05
(PID.TID 0000.0001) %MON DXG_min                      =   0.0000000000000E+00
(PID.TID 0000.0001) %MON DXG_mean                     =   1.9902252711933E+05
(PID.TID 0000.0001) %MON DXG_sd                       =   9.6314600686012E+04
(PID.TID 0000.0001) %MON DXV_max                      =   3.1268664380261E+05
(PID.TID 0000.0001) %MON DXV_min                      =   0.0000000000000E+00
(PID.TID 0000.0001) %MON DXV_mean                     =   1.9902252711933E+05
(PID.TID 0000.0001) %MON DXV_sd                       =   9.6314600686012E+04
(PID.TID 0000.0001) %MON YC_max                       =   8.8593750000000E+01
(PID.TID 0000.0001) %MON YC_min                       =  -8.8593750000000E+01
(PID.TID 0000.0001) %MON YC_mean                      =   0.0000000000000E+00
(PID.TID 0000.0001) %MON YC_sd                        =   5.1955180880375E+01
(PID.TID 0000.0001) %MON YG_max                       =   8.7187500000000E+01
(PID.TID 0000.0001) %MON YG_min                       =  -9.0000000000000E+01
(PID.TID 0000.0001) %MON YG_mean                      =  -1.4062500000000E+00
(PID.TID 0000.0001) %MON YG_sd                        =   5.1955180880375E+01
(PID.TID 0000.0001) %MON DYC_max                      =   3.1268664380261E+05
(PID.TID 0000.0001) %MON DYC_min                      =   3.1268664380261E+05
(PID.TID 0000.0001) %MON DYC_mean                     =   3.1268664380263E+05
(PID.TID 0000.0001) %MON DYC_sd                       =   2.4156179279089E-08
(PID.TID 0000.0001) %MON DYF_max                      =   3.1268664380261E+05
(PID.TID 0000.0001) %MON DYF_min                      =   3.1268664380261E+05
(PID.TID 0000.0001) %MON DYF_mean                     =   3.1268664380263E+05
(PID.TID 0000.0001) %MON DYF_sd                       =   2.4156179279089E-08
(PID.TID 0000.0001) %MON DYG_max                      =   3.1268664380261E+05
(PID.TID 0000.0001) %MON DYG_min                      =   3.1268664380261E+05
(PID.TID 0000.0001) %MON DYG_mean                     =   3.1268664380263E+05
(PID.TID 0000.0001) %MON DYG_sd                       =   2.4156179279089E-08
(PID.TID 0000.0001) %MON DYU_max                      =   3.1268664380261E+05
(PID.TID 0000.0001) %MON DYU_min                      =   3.1268664380261E+05
(PID.TID 0000.0001) %MON DYU_mean                     =   3.1268664380263E+05
(PID.TID 0000.0001) %MON DYU_sd                       =   2.4156179279089E-08
(PID.TID 0000.0001) %MON RA_max                       =   9.7733676797555E+10
(PID.TID 0000.0001) %MON RA_min                       =   2.3992270990190E+09
(PID.TID 0000.0001) %MON RA_mean                      =   6.2244185031957E+10
(PID.TID 0000.0001) %MON RA_sd                        =   3.0074496923945E+10
(PID.TID 0000.0001) %MON RAW_max                      =   9.7733676797555E+10
(PID.TID 0000.0001) %MON RAW_min                      =   2.3992270990190E+09
(PID.TID 0000.0001) %MON RAW_mean                     =   6.2244185031957E+10
(PID.TID 0000.0001) %MON RAW_sd                       =   3.0074496923945E+10
(PID.TID 0000.0001) %MON RAS_max                      =   9.7763121221868E+10
(PID.TID 0000.0001) %MON RAS_min                      =   0.0000000000000E+00
(PID.TID 0000.0001) %MON RAS_mean                     =   6.2225438247156E+10
(PID.TID 0000.0001) %MON RAS_sd                       =   3.0113265689233E+10
(PID.TID 0000.0001) %MON RAZ_max                      =   9.7763121221868E+10
(PID.TID 0000.0001) %MON RAZ_min                      =   0.0000000000000E+00
(PID.TID 0000.0001) %MON RAZ_mean                     =   6.2225438247156E+10
(PID.TID 0000.0001) %MON RAZ_sd                       =   3.0113265689233E+10
(PID.TID 0000.0001) %MON AngleCS_max                  =   1.0000000000000E+00
(PID.TID 0000.0001) %MON AngleCS_min                  =   1.0000000000000E+00
(PID.TID 0000.0001) %MON AngleCS_mean                 =   1.0000000000000E+00
(PID.TID 0000.0001) %MON AngleCS_sd                   =   0.0000000000000E+00
(PID.TID 0000.0001) %MON AngleSN_max                  =   0.0000000000000E+00
(PID.TID 0000.0001) %MON AngleSN_min                  =   0.0000000000000E+00
(PID.TID 0000.0001) %MON AngleSN_mean                 =   0.0000000000000E+00
(PID.TID 0000.0001) %MON AngleSN_sd                   =   0.0000000000000E+00
(PID.TID 0000.0001) 
(PID.TID 0000.0001) // =======================================================
(PID.TID 0000.0001) // Calendar configuration >>> START <<<
(PID.TID 0000.0001) // =======================================================
(PID.TID 0000.0001) 
(PID.TID 0000.0001) modelstart = /* Start time of the model integration [s] */
(PID.TID 0000.0001)                 0.000000000000000E+00
(PID.TID 0000.0001)     ;
(PID.TID 0000.0001) modelend  = /* End time of the model integration [s] */
(PID.TID 0000.0001)                 4.800000000000000E+03
(PID.TID 0000.0001)     ;
(PID.TID 0000.0001) modelStep = /* Time interval for a model forward step [s] */
(PID.TID 0000.0001)                 1.200000000000000E+03
(PID.TID 0000.0001)     ;
(PID.TID 0000.0001) usingGregorianCalendar= /* Calendar Type: Gregorian Calendar */
(PID.TID 0000.0001)                   T
(PID.TID 0000.0001)     ;
(PID.TID 0000.0001) usingJulianCalendar = /* Calendar Type: Julian Calendar */
(PID.TID 0000.0001)                   F
(PID.TID 0000.0001)     ;
(PID.TID 0000.0001) usingNoLeapYearCal  = /* Calendar Type: without Leap Year */
(PID.TID 0000.0001)                   F
(PID.TID 0000.0001)     ;
(PID.TID 0000.0001) usingModelCalendar  = /* Calendar Type: Model Calendar */
(PID.TID 0000.0001)                   F
(PID.TID 0000.0001)     ;
(PID.TID 0000.0001) modelStartDate YYYYMMDD = /* Model start date YYYY-MM-DD */
(PID.TID 0000.0001)                19920101
(PID.TID 0000.0001)     ;
(PID.TID 0000.0001)   modelStartDate HHMMSS = /* Model start date HH-MM-SS  */
(PID.TID 0000.0001)                       0
(PID.TID 0000.0001)     ;
(PID.TID 0000.0001) modelEndDate   YYYYMMDD = /* Model end date YYYY-MM-DD */
(PID.TID 0000.0001)                19920101
(PID.TID 0000.0001)     ;
(PID.TID 0000.0001)   modelEndDate   HHMMSS = /* Model end date HH-MM-SS  */
(PID.TID 0000.0001)                   12000
(PID.TID 0000.0001)     ;
(PID.TID 0000.0001) intyears = /* Number of calendar years affected by the integration */
(PID.TID 0000.0001)                       1
(PID.TID 0000.0001)     ;
(PID.TID 0000.0001) intmonths= /* Number of calendar months affected by the integration */
(PID.TID 0000.0001)                       1
(PID.TID 0000.0001)     ;
(PID.TID 0000.0001) intdays = /* Number of calendar days affected by the integration */
(PID.TID 0000.0001)                       1
(PID.TID 0000.0001)     ;
(PID.TID 0000.0001) modelIter0 = /* Base timestep number  */
(PID.TID 0000.0001)                       0
(PID.TID 0000.0001)     ;
(PID.TID 0000.0001) modelIterEnd = /* Final timestep number  */
(PID.TID 0000.0001)                       4
(PID.TID 0000.0001)     ;
(PID.TID 0000.0001) modelIntSteps= /* Number of model timesteps  */
(PID.TID 0000.0001)                       4
(PID.TID 0000.0001)     ;
(PID.TID 0000.0001) 
(PID.TID 0000.0001) // =======================================================
(PID.TID 0000.0001) // Calendar configuration  >>> END <<<
(PID.TID 0000.0001) // =======================================================
(PID.TID 0000.0001) 
(PID.TID 0000.0001) GAD_INIT_FIXED: GAD_OlMinSize=  2  0  1
(PID.TID 0000.0001) 
(PID.TID 0000.0001) // ===================================
(PID.TID 0000.0001) // GAD parameters :
(PID.TID 0000.0001) // ===================================
(PID.TID 0000.0001) tempAdvScheme =   /* Temp. Horiz.Advection scheme selector */
(PID.TID 0000.0001)                      30
(PID.TID 0000.0001)     ;
(PID.TID 0000.0001) tempVertAdvScheme =   /* Temp. Vert. Advection scheme selector */
(PID.TID 0000.0001)                       3
(PID.TID 0000.0001)     ;
(PID.TID 0000.0001) tempMultiDimAdvec =   /* use Muti-Dim Advec method for Temp */
(PID.TID 0000.0001)                   T
(PID.TID 0000.0001)     ;
(PID.TID 0000.0001) tempSOM_Advection = /* use 2nd Order Moment Advection for Temp */
(PID.TID 0000.0001)                   F
(PID.TID 0000.0001)     ;
(PID.TID 0000.0001) AdamsBashforthGt = /* apply Adams-Bashforth extrapolation on Gt */
(PID.TID 0000.0001)                   F
(PID.TID 0000.0001)     ;
(PID.TID 0000.0001) AdamsBashforth_T = /* apply Adams-Bashforth extrapolation on Temp */
(PID.TID 0000.0001)                   F
(PID.TID 0000.0001)     ;
(PID.TID 0000.0001) saltAdvScheme =   /* Salt. Horiz.advection scheme selector */
(PID.TID 0000.0001)                      30
(PID.TID 0000.0001)     ;
(PID.TID 0000.0001) saltVertAdvScheme =   /* Salt. Vert. Advection scheme selector */
(PID.TID 0000.0001)                       3
(PID.TID 0000.0001)     ;
(PID.TID 0000.0001) saltMultiDimAdvec =   /* use Muti-Dim Advec method for Salt */
(PID.TID 0000.0001)                   T
(PID.TID 0000.0001)     ;
(PID.TID 0000.0001) saltSOM_Advection = /* use 2nd Order Moment Advection for Salt */
(PID.TID 0000.0001)                   F
(PID.TID 0000.0001)     ;
(PID.TID 0000.0001) AdamsBashforthGs = /* apply Adams-Bashforth extrapolation on Gs */
(PID.TID 0000.0001)                   F
(PID.TID 0000.0001)     ;
(PID.TID 0000.0001) AdamsBashforth_S = /* apply Adams-Bashforth extrapolation on Salt */
(PID.TID 0000.0001)                   F
(PID.TID 0000.0001)     ;
(PID.TID 0000.0001) // ===================================
(PID.TID 0000.0001) 
(PID.TID 0000.0001) // =======================================================
(PID.TID 0000.0001) // External forcing (EXF) configuration >>> START <<<
(PID.TID 0000.0001) // =======================================================
(PID.TID 0000.0001) 
(PID.TID 0000.0001)  EXF general parameters:
(PID.TID 0000.0001) 
(PID.TID 0000.0001) exf_iprec = /* exf file precision */
(PID.TID 0000.0001)                      32
(PID.TID 0000.0001)     ;
(PID.TID 0000.0001) useExfYearlyFields = /* add extension _YEAR to input file names */
(PID.TID 0000.0001)                   T
(PID.TID 0000.0001)     ;
(PID.TID 0000.0001) twoDigitYear = /* use 2-digit year extension */
(PID.TID 0000.0001)                   F
(PID.TID 0000.0001)     ;
[...]
(PID.TID 0000.0001) %MON trcstat_ptracer26_sd         =   1.1289210207331E-01
(PID.TID 0000.0001) %MON trcstat_ptracer26_del2       =   1.2763389905167E-03
(PID.TID 0000.0001) %MON trcstat_ptracer27_max        =   7.4469676096966E+00
(PID.TID 0000.0001) %MON trcstat_ptracer27_min        =  -5.6527188550482E-01
(PID.TID 0000.0001) %MON trcstat_ptracer27_mean       =   2.7805514992622E-03
(PID.TID 0000.0001) %MON trcstat_ptracer27_sd         =   4.7093307639203E-02
(PID.TID 0000.0001) %MON trcstat_ptracer27_del2       =   7.8046059550412E-04
(PID.TID 0000.0001) %MON trcstat_ptracer28_max        =   1.4924942980495E+01
(PID.TID 0000.0001) %MON trcstat_ptracer28_min        =  -6.4834118720383E-01
(PID.TID 0000.0001) %MON trcstat_ptracer28_mean       =   1.8716137878899E-03
(PID.TID 0000.0001) %MON trcstat_ptracer28_sd         =   4.6325301310186E-02
(PID.TID 0000.0001) %MON trcstat_ptracer28_del2       =   1.1521120780604E-03
(PID.TID 0000.0001) %MON trcstat_ptracer29_max        =   9.5482694965935E-01
(PID.TID 0000.0001) %MON trcstat_ptracer29_min        =  -1.6439436214613E-01
(PID.TID 0000.0001) %MON trcstat_ptracer29_mean       =   3.5565031249991E-04
(PID.TID 0000.0001) %MON trcstat_ptracer29_sd         =   7.4497923390719E-03
(PID.TID 0000.0001) %MON trcstat_ptracer29_del2       =   1.1991230407051E-04
(PID.TID 0000.0001) %MON trcstat_ptracer30_max        =   2.4407807052296E-03
(PID.TID 0000.0001) %MON trcstat_ptracer30_min        =  -3.6776623966201E-03
(PID.TID 0000.0001) %MON trcstat_ptracer30_mean       =  -2.1248535089860E-07
(PID.TID 0000.0001) %MON trcstat_ptracer30_sd         =   2.5271505630724E-05
(PID.TID 0000.0001) %MON trcstat_ptracer30_del2       =   3.5941120713197E-07
(PID.TID 0000.0001) %MON trcstat_ptracer31_max        =   2.8735622964904E+02
(PID.TID 0000.0001) %MON trcstat_ptracer31_min        =  -1.3357668654752E-01
(PID.TID 0000.0001) %MON trcstat_ptracer31_mean       =   1.0154334860680E-01
(PID.TID 0000.0001) %MON trcstat_ptracer31_sd         =   3.4960739251404E+00
(PID.TID 0000.0001) %MON trcstat_ptracer31_del2       =   2.1608139333044E-02
(PID.TID 0000.0001) // =======================================================
(PID.TID 0000.0001) // End MONITOR ptracer field statistics
(PID.TID 0000.0001) // =======================================================
(PID.TID 0000.0001) %CHECKPOINT         4 ckptA
(PID.TID 0000.0001)   Seconds in section "ALL                    [THE_MODEL_MAIN]":
(PID.TID 0000.0001)           User time:   14.096700051799417
(PID.TID 0000.0001)         System time:  0.47401200607419014
(PID.TID 0000.0001)     Wall clock time:   14.787508010864258
(PID.TID 0000.0001)          No. starts:           1
(PID.TID 0000.0001)           No. stops:           1
(PID.TID 0000.0001)   Seconds in section "INITIALISE_FIXED       [THE_MODEL_MAIN]":
(PID.TID 0000.0001)           User time:  0.41354198940098286
(PID.TID 0000.0001)         System time:   3.5216999240219593E-002
(PID.TID 0000.0001)     Wall clock time:  0.47644805908203125
(PID.TID 0000.0001)          No. starts:           1
(PID.TID 0000.0001)           No. stops:           1
(PID.TID 0000.0001)   Seconds in section "THE_MAIN_LOOP          [THE_MODEL_MAIN]":
(PID.TID 0000.0001)           User time:   13.683123201131821
(PID.TID 0000.0001)         System time:  0.43879000470042229
(PID.TID 0000.0001)     Wall clock time:   14.311028957366943
(PID.TID 0000.0001)          No. starts:           1
(PID.TID 0000.0001)           No. stops:           1
(PID.TID 0000.0001)   Seconds in section "INITIALISE_VARIA    [THE_MAIN_LOOP]":
(PID.TID 0000.0001)           User time:  0.67657196521759033
(PID.TID 0000.0001)         System time:  0.15778700634837151
(PID.TID 0000.0001)     Wall clock time:  0.89187693595886230
(PID.TID 0000.0001)          No. starts:           1
(PID.TID 0000.0001)           No. stops:           1
(PID.TID 0000.0001)   Seconds in section "MAIN LOOP           [THE_MAIN_LOOP]":
(PID.TID 0000.0001)           User time:   13.006539344787598
(PID.TID 0000.0001)         System time:  0.28100100159645081
(PID.TID 0000.0001)     Wall clock time:   13.419140100479126
(PID.TID 0000.0001)          No. starts:           1
(PID.TID 0000.0001)           No. stops:           1
(PID.TID 0000.0001)   Seconds in section "MAIN_DO_LOOP        [THE_MAIN_LOOP]":
(PID.TID 0000.0001)           User time:   13.006521105766296
(PID.TID 0000.0001)         System time:  0.28099900484085083
(PID.TID 0000.0001)     Wall clock time:   13.419121026992798
(PID.TID 0000.0001)          No. starts:           4
(PID.TID 0000.0001)           No. stops:           4
(PID.TID 0000.0001)   Seconds in section "FORWARD_STEP        [MAIN_DO_LOOP]":
(PID.TID 0000.0001)           User time:   13.006490349769592
(PID.TID 0000.0001)         System time:  0.28099799156188965
(PID.TID 0000.0001)     Wall clock time:   13.419088840484619
(PID.TID 0000.0001)          No. starts:           4
(PID.TID 0000.0001)           No. stops:           4
(PID.TID 0000.0001)   Seconds in section "DO_STATEVARS_DIAGS  [FORWARD_STEP]":
(PID.TID 0000.0001)           User time:   3.9465427398681641E-002
(PID.TID 0000.0001)         System time:   3.9598345756530762E-004
(PID.TID 0000.0001)     Wall clock time:   3.9866924285888672E-002
(PID.TID 0000.0001)          No. starts:          12
(PID.TID 0000.0001)           No. stops:          12
(PID.TID 0000.0001)   Seconds in section "LOAD_FIELDS_DRIVER  [FORWARD_STEP]":
(PID.TID 0000.0001)           User time:   9.4540476799011230E-002
(PID.TID 0000.0001)         System time:   9.1690272092819214E-003
(PID.TID 0000.0001)     Wall clock time:  0.12462282180786133
(PID.TID 0000.0001)          No. starts:           4
(PID.TID 0000.0001)           No. stops:           4
(PID.TID 0000.0001)   Seconds in section "EXF_GETFORCING     [LOAD_FLDS_DRIVER]":
(PID.TID 0000.0001)           User time:   8.3211421966552734E-002
(PID.TID 0000.0001)         System time:   7.2120279073715210E-003
(PID.TID 0000.0001)     Wall clock time:  0.10785388946533203
(PID.TID 0000.0001)          No. starts:           4
(PID.TID 0000.0001)           No. stops:           4
(PID.TID 0000.0001)   Seconds in section "EXTERNAL_FLDS_LOAD [LOAD_FLDS_DRIVER]":
(PID.TID 0000.0001)           User time:   7.4899196624755859E-004
(PID.TID 0000.0001)         System time:   4.0084123611450195E-006
(PID.TID 0000.0001)     Wall clock time:   7.5387954711914062E-004
(PID.TID 0000.0001)          No. starts:           4
(PID.TID 0000.0001)           No. stops:           4
(PID.TID 0000.0001)   Seconds in section "DO_ATMOSPHERIC_PHYS [FORWARD_STEP]":
(PID.TID 0000.0001)           User time:   1.5497207641601562E-005
(PID.TID 0000.0001)         System time:   2.9802322387695312E-006
(PID.TID 0000.0001)     Wall clock time:   1.7642974853515625E-005
(PID.TID 0000.0001)          No. starts:           4
(PID.TID 0000.0001)           No. stops:           4
(PID.TID 0000.0001)   Seconds in section "DO_OCEANIC_PHYS     [FORWARD_STEP]":
(PID.TID 0000.0001)           User time:  0.72892737388610840
(PID.TID 0000.0001)         System time:   9.6289664506912231E-003
(PID.TID 0000.0001)     Wall clock time:  0.74031972885131836
(PID.TID 0000.0001)          No. starts:           4
(PID.TID 0000.0001)           No. stops:           4
(PID.TID 0000.0001)   Seconds in section "SEAICE_MODEL    [DO_OCEANIC_PHYS]":
(PID.TID 0000.0001)           User time:  0.31083488464355469
(PID.TID 0000.0001)         System time:   2.9429793357849121E-003
(PID.TID 0000.0001)     Wall clock time:  0.31443905830383301
(PID.TID 0000.0001)          No. starts:           4
(PID.TID 0000.0001)           No. stops:           4
(PID.TID 0000.0001)   Seconds in section "SEAICE_DYNSOLVER   [SEAICE_MODEL]":
(PID.TID 0000.0001)           User time:  0.27214419841766357
(PID.TID 0000.0001)         System time:   1.3110041618347168E-003
(PID.TID 0000.0001)     Wall clock time:  0.27409005165100098
(PID.TID 0000.0001)          No. starts:           4
(PID.TID 0000.0001)           No. stops:           4
(PID.TID 0000.0001)   Seconds in section "GGL90_CALC [DO_OCEANIC_PHYS]":
(PID.TID 0000.0001)           User time:  0.18511319160461426
(PID.TID 0000.0001)         System time:   4.7370344400405884E-003
(PID.TID 0000.0001)     Wall clock time:  0.19050431251525879
(PID.TID 0000.0001)          No. starts:           4
(PID.TID 0000.0001)           No. stops:           4
(PID.TID 0000.0001)   Seconds in section "GCHEM_CALC_TENDENCY [FORWARD_STEP]":
(PID.TID 0000.0001)           User time:   1.3589859008789062E-005
(PID.TID 0000.0001)         System time:   2.0116567611694336E-006
(PID.TID 0000.0001)     Wall clock time:   1.6212463378906250E-005
(PID.TID 0000.0001)          No. starts:           4
(PID.TID 0000.0001)           No. stops:           4
(PID.TID 0000.0001)   Seconds in section "DYNAMICS            [FORWARD_STEP]":
(PID.TID 0000.0001)           User time:  0.74271476268768311
(PID.TID 0000.0001)         System time:   7.7469646930694580E-003
(PID.TID 0000.0001)     Wall clock time:  0.75164771080017090
(PID.TID 0000.0001)          No. starts:           4
(PID.TID 0000.0001)           No. stops:           4
(PID.TID 0000.0001)   Seconds in section "UPDATE_R_STAR       [FORWARD_STEP]":
(PID.TID 0000.0001)           User time:   1.5851974487304688E-002
(PID.TID 0000.0001)         System time:   1.7017126083374023E-005
(PID.TID 0000.0001)     Wall clock time:   1.5899181365966797E-002
(PID.TID 0000.0001)          No. starts:           4
(PID.TID 0000.0001)           No. stops:           4
(PID.TID 0000.0001)   Seconds in section "UPDATE_CG2D         [FORWARD_STEP]":
(PID.TID 0000.0001)           User time:   9.4825029373168945E-003
(PID.TID 0000.0001)         System time:   3.2991170883178711E-005
(PID.TID 0000.0001)     Wall clock time:   9.5188617706298828E-003
(PID.TID 0000.0001)          No. starts:           4
(PID.TID 0000.0001)           No. stops:           4
(PID.TID 0000.0001)   Seconds in section "SOLVE_FOR_PRESSURE  [FORWARD_STEP]":
(PID.TID 0000.0001)           User time:   4.6662569046020508E-002
(PID.TID 0000.0001)         System time:   2.2903084754943848E-004
(PID.TID 0000.0001)     Wall clock time:   4.6953201293945312E-002
(PID.TID 0000.0001)          No. starts:           4
(PID.TID 0000.0001)           No. stops:           4
(PID.TID 0000.0001)   Seconds in section "MOM_CORRECTION_STEP [FORWARD_STEP]":
(PID.TID 0000.0001)           User time:   1.3767361640930176E-002
(PID.TID 0000.0001)         System time:   1.5102326869964600E-004
(PID.TID 0000.0001)     Wall clock time:   1.4004945755004883E-002
(PID.TID 0000.0001)          No. starts:           4
(PID.TID 0000.0001)           No. stops:           4
(PID.TID 0000.0001)   Seconds in section "INTEGR_CONTINUITY   [FORWARD_STEP]":
(PID.TID 0000.0001)           User time:   2.9200792312622070E-002
(PID.TID 0000.0001)         System time:   5.0976872444152832E-005
(PID.TID 0000.0001)     Wall clock time:   2.9292106628417969E-002
(PID.TID 0000.0001)          No. starts:           4
(PID.TID 0000.0001)           No. stops:           4
(PID.TID 0000.0001)   Seconds in section "CALC_R_STAR         [FORWARD_STEP]":
(PID.TID 0000.0001)           User time:   3.3415555953979492E-003
(PID.TID 0000.0001)         System time:   2.9012560844421387E-005
(PID.TID 0000.0001)     Wall clock time:   3.3731460571289062E-003
(PID.TID 0000.0001)          No. starts:           4
(PID.TID 0000.0001)           No. stops:           4
(PID.TID 0000.0001)   Seconds in section "BLOCKING_EXCHANGES  [FORWARD_STEP]":
(PID.TID 0000.0001)           User time:   8.7242603302001953E-002
(PID.TID 0000.0001)         System time:   1.3393163681030273E-004
(PID.TID 0000.0001)     Wall clock time:   8.7455272674560547E-002
(PID.TID 0000.0001)          No. starts:           8
(PID.TID 0000.0001)           No. stops:           8
(PID.TID 0000.0001)   Seconds in section "THERMODYNAMICS      [FORWARD_STEP]":
(PID.TID 0000.0001)           User time:   8.9963415861129761
(PID.TID 0000.0001)         System time:   2.3862987756729126E-002
(PID.TID 0000.0001)     Wall clock time:   9.0410680770874023
(PID.TID 0000.0001)          No. starts:           4
(PID.TID 0000.0001)           No. stops:           4
(PID.TID 0000.0001)   Seconds in section "TRC_CORRECTION_STEP [FORWARD_STEP]":
(PID.TID 0000.0001)           User time:   1.6927719116210938E-005
(PID.TID 0000.0001)         System time:   0.0000000000000000
(PID.TID 0000.0001)     Wall clock time:   1.5974044799804688E-005
(PID.TID 0000.0001)          No. starts:           4
(PID.TID 0000.0001)           No. stops:           4
(PID.TID 0000.0001)   Seconds in section "GCHEM_FORCING_SEP  [FORWARD_STEP]":
(PID.TID 0000.0001)           User time:   1.2094774246215820
(PID.TID 0000.0001)         System time:   1.7142012715339661E-002
(PID.TID 0000.0001)     Wall clock time:   1.2303264141082764
(PID.TID 0000.0001)          No. starts:           4
(PID.TID 0000.0001)           No. stops:           4
(PID.TID 0000.0001)   Seconds in section "DARWIN_FORCING [GCHEM_FORCING_SEP]":
(PID.TID 0000.0001)           User time:  0.97122859954833984
(PID.TID 0000.0001)         System time:   1.5943005681037903E-002
(PID.TID 0000.0001)     Wall clock time:  0.99021720886230469
(PID.TID 0000.0001)          No. starts:           4
(PID.TID 0000.0001)           No. stops:           4
(PID.TID 0000.0001)   Seconds in section "DARWIN_LIGHT [DARWIN_FORCING]":
(PID.TID 0000.0001)           User time:   3.2318830490112305E-002
(PID.TID 0000.0001)         System time:   5.7998299598693848E-004
(PID.TID 0000.0001)     Wall clock time:   3.3097028732299805E-002
(PID.TID 0000.0001)          No. starts:           4
(PID.TID 0000.0001)           No. stops:           4
(PID.TID 0000.0001)   Seconds in section "DARWIN_SURFFORCING [DARWIN_FORCING]":
(PID.TID 0000.0001)           User time:  0.14210724830627441
(PID.TID 0000.0001)         System time:   6.7797303199768066E-004
(PID.TID 0000.0001)     Wall clock time:  0.14327716827392578
(PID.TID 0000.0001)          No. starts:           4
(PID.TID 0000.0001)           No. stops:           4
(PID.TID 0000.0001)   Seconds in section "DARWIN_FE_CHEM [DARWIN_FORCING]":
(PID.TID 0000.0001)           User time:   3.4476280212402344E-002
(PID.TID 0000.0001)         System time:   9.4899535179138184E-004
(PID.TID 0000.0001)     Wall clock time:   3.5671949386596680E-002
(PID.TID 0000.0001)          No. starts:           8
(PID.TID 0000.0001)           No. stops:           8
(PID.TID 0000.0001)   Seconds in section "DARWIN_FE_DUST [DARWIN_FORCING]":
(PID.TID 0000.0001)           User time:   2.3388862609863281E-004
(PID.TID 0000.0001)         System time:   3.0100345611572266E-006
(PID.TID 0000.0001)     Wall clock time:   2.4390220642089844E-004
(PID.TID 0000.0001)          No. starts:           4
(PID.TID 0000.0001)           No. stops:           4
(PID.TID 0000.0001)   Seconds in section "DARWIN_FE_SCAV [DARWIN_FORCING]":
(PID.TID 0000.0001)           User time:   1.1520862579345703E-002
(PID.TID 0000.0001)         System time:   5.7995319366455078E-005
(PID.TID 0000.0001)     Wall clock time:   1.1636018753051758E-002
(PID.TID 0000.0001)          No. starts:           4
(PID.TID 0000.0001)           No. stops:           4
(PID.TID 0000.0001)   Seconds in section "DARWIN_FE_SED [DARWIN_FORCING]":
(PID.TID 0000.0001)           User time:   2.4998188018798828E-003
(PID.TID 0000.0001)         System time:   2.3698806762695312E-004
(PID.TID 0000.0001)     Wall clock time:   2.7360916137695312E-003
(PID.TID 0000.0001)          No. starts:           4
(PID.TID 0000.0001)           No. stops:           4
(PID.TID 0000.0001)   Seconds in section "DARWIN_PLANKTON [DARWIN_FORCING]":
(PID.TID 0000.0001)           User time:  0.44866943359375000
(PID.TID 0000.0001)         System time:   3.1599700450897217E-003
(PID.TID 0000.0001)     Wall clock time:  0.45293903350830078
(PID.TID 0000.0001)          No. starts:           4
(PID.TID 0000.0001)           No. stops:           4
(PID.TID 0000.0001)   Seconds in section "DARWIN_SINKING [DARWIN_FORCING]":
(PID.TID 0000.0001)           User time:  0.10701465606689453
(PID.TID 0000.0001)         System time:   1.0305643081665039E-004
(PID.TID 0000.0001)     Wall clock time:  0.10735821723937988
(PID.TID 0000.0001)          No. starts:           4
(PID.TID 0000.0001)           No. stops:           4
(PID.TID 0000.0001)   Seconds in section "DARWIN_STEP [DARWIN_FORCING]":
(PID.TID 0000.0001)           User time:  0.12511444091796875
(PID.TID 0000.0001)         System time:   2.2500753402709961E-004
(PID.TID 0000.0001)     Wall clock time:  0.12556529045104980
(PID.TID 0000.0001)          No. starts:           4
(PID.TID 0000.0001)           No. stops:           4
(PID.TID 0000.0001)   Seconds in section "DIAGS_FILL [DARWIN_FORCING]":
(PID.TID 0000.0001)           User time:   2.3618221282958984E-002
(PID.TID 0000.0001)         System time:   4.7302246093750000E-004
(PID.TID 0000.0001)     Wall clock time:   2.4245977401733398E-002
(PID.TID 0000.0001)          No. starts:           4
(PID.TID 0000.0001)           No. stops:           4
(PID.TID 0000.0001)   Seconds in section "MONITOR             [FORWARD_STEP]":
(PID.TID 0000.0001)           User time:  0.13805723190307617
(PID.TID 0000.0001)         System time:   9.0298056602478027E-004
(PID.TID 0000.0001)     Wall clock time:  0.14346575736999512
(PID.TID 0000.0001)          No. starts:           4
(PID.TID 0000.0001)           No. stops:           4
(PID.TID 0000.0001)   Seconds in section "DO_THE_MODEL_IO     [FORWARD_STEP]":
(PID.TID 0000.0001)           User time:  0.70187139511108398
(PID.TID 0000.0001)         System time:   9.6479028463363647E-002
(PID.TID 0000.0001)     Wall clock time:  0.83864593505859375
(PID.TID 0000.0001)          No. starts:           4
(PID.TID 0000.0001)           No. stops:           4
(PID.TID 0000.0001)   Seconds in section "PTRACERS_RESET      [FORWARD_STEP]":
(PID.TID 0000.0001)           User time:   1.8596649169921875E-005
(PID.TID 0000.0001)         System time:   3.0100345611572266E-006
(PID.TID 0000.0001)     Wall clock time:   1.9073486328125000E-005
(PID.TID 0000.0001)          No. starts:           4
(PID.TID 0000.0001)           No. stops:           4
(PID.TID 0000.0001)   Seconds in section "DO_WRITE_PICKUP     [FORWARD_STEP]":
(PID.TID 0000.0001)           User time:  0.14907264709472656
(PID.TID 0000.0001)         System time:  0.11491200327873230
(PID.TID 0000.0001)     Wall clock time:  0.30213904380798340
(PID.TID 0000.0001)          No. starts:           4
(PID.TID 0000.0001)           No. stops:           4
(PID.TID 0000.0001) // ======================================================
(PID.TID 0000.0001) // Tile <-> Tile communication statistics
(PID.TID 0000.0001) // ======================================================
(PID.TID 0000.0001) // o Tile number: 000001
(PID.TID 0000.0001) //         No. X exchanges =              0
(PID.TID 0000.0001) //            Max. X spins =              0
(PID.TID 0000.0001) //            Min. X spins =     1000000000
(PID.TID 0000.0001) //          Total. X spins =              0
(PID.TID 0000.0001) //            Avg. X spins =       0.00E+00
(PID.TID 0000.0001) //         No. Y exchanges =              0
(PID.TID 0000.0001) //            Max. Y spins =              0
(PID.TID 0000.0001) //            Min. Y spins =     1000000000
(PID.TID 0000.0001) //          Total. Y spins =              0
(PID.TID 0000.0001) //            Avg. Y spins =       0.00E+00
(PID.TID 0000.0001) // o Thread number: 000001
(PID.TID 0000.0001) //            No. barriers =          12332
(PID.TID 0000.0001) //      Max. barrier spins =              1
(PID.TID 0000.0001) //      Min. barrier spins =              1
(PID.TID 0000.0001) //     Total barrier spins =          12332
(PID.TID 0000.0001) //      Avg. barrier spins =       1.00E+00
PROGRAM MAIN: Execution ended Normally
